4FJ_ref
     RDKit          3D

 69 75  0  0  1  0  0  0  0  0999 V2000
   22.2990   17.8390   21.5940 C   0  0  0  0  0  0  0  0  0  0  0  0
   17.9210   19.7070   22.3140 C   0  0  0  0  0  0  0  0  0  0  0  0
   18.5780   20.9090   22.5530 C   0  0  0  0  0  0  0  0  0  0  0  0
   24.4700   16.1860   18.9580 C   0  0  0  0  0  0  0  0  0  0  0  0
   25.4250   15.1050   19.4690 C   0  0  0  0  0  0  0  0  0  0  0  0
   23.3720   14.9590   20.6190 C   0  0  0  0  0  0  0  0  0  0  0  0
   22.9370   13.4690   22.4490 C   0  0  0  0  0  0  0  0  0  0  0  0
   22.5010   14.4610   21.5820 C   0  0  0  0  0  0  0  0  0  0  0  0
   25.7330   14.0460   18.3930 C   0  0  0  0  0  0  0  0  0  0  0  0
   26.8010   14.5500   17.4180 C   0  0  0  0  0  0  0  0  0  0  0  0
   27.5480   16.2420   18.8420 C   0  0  0  0  0  0  0  0  0  0  0  0
   22.3300   11.6770   24.0350 C   0  0  0  0  0  0  0  0  0  0  0  0
   21.0340   10.9050   24.0250 C   0  0  0  0  0  0  0  0  0  0  0  0
   20.8700   13.7140   23.8170 C   0  0  0  0  0  0  0  0  0  0  0  0
   27.9490   15.0920   18.0870 O   0  0  0  0  0  0  0  0  0  0  0  0
   26.7140   15.7330   20.0130 C   0  0  0  0  0  0  0  0  0  0  0  0
   24.6630   14.4280   20.5760 C   0  0  0  0  0  0  0  0  0  0  0  0
   25.0590   13.4670   21.4260 N   0  0  0  0  0  0  0  0  0  0  0  0
   24.2430   12.9880   22.3480 C   0  0  0  0  0  0  0  0  0  0  0  0
   22.0700   12.9660   23.4080 N   0  0  0  0  0  0  0  0  0  0  0  0
   20.0510   11.6220   24.7780 O   0  0  0  0  0  0  0  0  0  0  0  0
   19.6660   12.7880   24.0490 C   0  0  0  0  0  0  0  0  0  0  0  0
   23.2140   15.9090   19.6810 N   0  0  0  0  0  0  0  0  0  0  0  0
   22.0520   16.5460   19.4270 C   0  0  0  0  0  0  0  0  0  0  0  0
   21.5320   17.5010   20.3080 C   0  0  0  0  0  0  0  0  0  0  0  0
   21.3220   16.2630   18.2680 C   0  0  0  0  0  0  0  0  0  0  0  0
   21.7910   15.3240   17.3540 C   0  0  0  0  0  0  0  0  0  0  0  0
   21.0690   15.0440   16.2000 C   0  0  0  0  0  0  0  0  0  0  0  0
   19.8730   15.7040   15.9490 C   0  0  0  0  0  0  0  0  0  0  0  0
   19.1890   15.4280   14.8190 F   0  0  0  0  0  0  0  0  0  0  0  0
   19.4010   16.6440   16.8580 C   0  0  0  0  0  0  0  0  0  0  0  0
   20.1190   16.9230   18.0150 C   0  0  0  0  0  0  0  0  0  0  0  0
   19.6460   17.8330   18.8740 N   0  0  0  0  0  0  0  0  0  0  0  0
   20.3150   18.1410   19.9980 C   0  0  0  0  0  0  0  0  0  0  0  0
   19.7440   19.0850   20.8530 C   0  0  0  0  0  0  0  0  0  0  0  0
   18.5150   18.7880   21.4540 C   0  0  0  0  0  0  0  0  0  0  0  0
   19.8030   21.1560   21.9270 C   0  0  0  0  0  0  0  0  0  0  0  0
   20.3490   20.2610   21.1080 N   0  0  0  0  0  0  0  0  0  0  0  0
   22.5283   18.9034   21.6212 H   0  0  0  0  0  0  0  0  0  0  0  0
   21.6804   17.6239   22.4662 H   0  0  0  0  0  0  0  0  0  0  0  0
   23.2539   17.3378   21.7317 H   0  0  0  0  0  0  0  0  0  0  0  0
   16.9767   19.4892   22.7920 H   0  0  0  0  0  0  0  0  0  0  0  0
   18.1517   21.6402   23.2229 H   0  0  0  0  0  0  0  0  0  0  0  0
   24.3422   16.1599   17.8768 H   0  0  0  0  0  0  0  0  0  0  0  0
   24.7988   17.1930   19.2214 H   0  0  0  0  0  0  0  0  0  0  0  0
   21.4970   14.8465   21.5737 H   0  0  0  0  0  0  0  0  0  0  0  0
   24.8326   13.7056   17.8786 H   0  0  0  0  0  0  0  0  0  0  0  0
   26.1499   13.1553   18.8678 H   0  0  0  0  0  0  0  0  0  0  0  0
   26.3847   15.2780   16.7196 H   0  0  0  0  0  0  0  0  0  0  0  0
   27.0791   13.7121   16.8397 H   0  0  0  0  0  0  0  0  0  0  0  0
   26.9766   16.9385   18.2243 H   0  0  0  0  0  0  0  0  0  0  0  0
   28.3911   16.8433   19.1515 H   0  0  0  0  0  0  0  0  0  0  0  0
   23.0583   11.0745   23.4999 H   0  0  0  0  0  0  0  0  0  0  0  0
   22.7064   11.8236   25.0486 H   0  0  0  0  0  0  0  0  0  0  0  0
   21.2556   10.0828   24.6977 H   0  0  0  0  0  0  0  0  0  0  0  0
   20.7648   10.6691   22.9961 H   0  0  0  0  0  0  0  0  0  0  0  0
   20.5763   14.6007   23.2644 H   0  0  0  0  0  0  0  0  0  0  0  0
   21.1407   14.0325   24.8135 H   0  0  0  0  0  0  0  0  0  0  0  0
   27.2858   14.9452   20.4934 H   0  0  0  0  0  0  0  0  0  0  0  0
   26.5236   16.5009   20.7651 H   0  0  0  0  0  0  0  0  0  0  0  0
   26.0019   13.1057   21.3886 H   0  0  0  0  0  0  0  0  0  0  0  0
   24.6926   12.2477   22.9933 H   0  0  0  0  0  0  0  0  0  0  0  0
   19.2089   12.5081   23.0976 H   0  0  0  0  0  0  0  0  0  0  0  0
   18.8931   13.3134   24.6114 H   0  0  0  0  0  0  0  0  0  0  0  0
   22.6946   14.7608   17.5262 H   0  0  0  0  0  0  0  0  0  0  0  0
   21.3829   14.3017   15.4993 H   0  0  0  0  0  0  0  0  0  0  0  0
   18.4721   17.1609   16.6640 H   0  0  0  0  0  0  0  0  0  0  0  0
   18.0198   17.8461   21.2636 H   0  0  0  0  0  0  0  0  0  0  0  0
   20.3728   22.0556   22.0996 H   0  0  0  0  0  0  0  0  0  0  0  0
  1 25  1  0
  1 39  1  0
  1 40  1  0
  1 41  1  0
  2  3  2  0
  2 36  1  0
  2 42  1  0
  3 37  1  0
  3 43  1  0
  4  5  1  0
  4 23  1  0
  4 44  1  0
  4 45  1  0
  5  9  1  0
  5 16  1  0
  5 17  1  0
  6  8  1  0
  6 17  2  0
  6 23  1  0
  7  8  2  0
  7 19  1  0
  7 20  1  0
  8 46  1  0
  9 10  1  0
  9 47  1  0
  9 48  1  0
 10 15  1  0
 10 49  1  0
 10 50  1  0
 11 15  1  0
 11 16  1  0
 11 51  1  0
 11 52  1  0
 12 13  1  0
 12 20  1  0
 12 53  1  0
 12 54  1  0
 13 21  1  0
 13 55  1  0
 13 56  1  0
 14 20  1  0
 14 22  1  0
 14 57  1  0
 14 58  1  0
 16 59  1  0
 16 60  1  0
 17 18  1  0
 18 19  2  0
 18 61  1  0
 19 62  1  0
 21 22  1  0
 22 63  1  0
 22 64  1  0
 23 24  1  0
 24 25  2  0
 24 26  1  0
 25 34  1  0
 26 27  2  0
 26 32  1  0
 27 28  1  0
 27 65  1  0
 28 29  2  0
 28 66  1  0
 29 30  1  0
 29 31  1  0
 31 32  2  0
 31 67  1  0
 32 33  1  0
 33 34  2  0
 34 35  1  0
 35 36  2  0
 35 38  1  0
 36 68  1  0
 37 38  2  0
 37 69  1  0
M  CHG  1  18   1
M  END
$$$$
