NOC_ref
     RDKit          3D

 34 36  0  0  1  0  0  0  0  0999 V2000
   42.9700  -18.8800  104.4030 C   0  0  0  0  0  0  0  0  0  0  0  0
   42.7730  -20.0430  105.2780 O   0  0  0  0  0  0  0  0  0  0  0  0
   44.9400  -19.7130  103.1690 C   0  0  0  0  0  0  0  0  0  0  0  0
   44.3370  -18.8100  104.0190 C   0  0  2  0  0  0  0  0  0  0  0  0
   45.3030  -17.8470  104.5790 C   0  0  2  0  0  0  0  0  0  0  0  0
   45.0870  -16.8260  105.1880 O   0  0  0  0  0  0  0  0  0  0  0  0
   46.4790  -17.9870  103.6650 C   0  0  1  0  0  0  0  0  0  0  0  0
   47.6540  -17.6860  104.4020 O   0  0  0  0  0  0  0  0  0  0  0  0
   46.4280  -19.4820  103.1520 C   0  0  2  0  0  0  0  0  0  0  0  0
   47.1500  -19.8960  101.9590 N   0  0  0  0  0  0  0  0  0  0  0  0
   47.0330  -19.3640  100.6760 C   0  0  0  0  0  0  0  0  0  0  0  0
   47.7970  -19.9540   99.8240 N   0  0  0  0  0  0  0  0  0  0  0  0
   48.4810  -20.9420  100.5410 C   0  0  0  0  0  0  0  0  0  0  0  0
   49.4730  -21.9390  100.2160 C   0  0  0  0  0  0  0  0  0  0  0  0
   49.9870  -22.0920   98.9540 N   0  0  0  0  0  0  0  0  0  0  0  0
   49.8890  -22.7510  101.2830 N   0  0  0  0  0  0  0  0  0  0  0  0
   49.4060  -22.6100  102.5020 C   0  0  0  0  0  0  0  0  0  0  0  0
   48.4820  -21.7170  102.9280 N   0  0  0  0  0  0  0  0  0  0  0  0
   48.0430  -20.8920  101.9050 C   0  0  0  0  0  0  0  0  0  0  0  0
   42.6260  -17.9836  104.9168 H   0  0  0  0  0  0  0  0  0  0  0  0
   42.2962  -19.0321  103.5542 H   0  0  0  0  0  0  0  0  0  0  0  0
   43.2890  -19.9180  106.0840 H   0  0  0  0  0  0  0  0  0  0  0  0
   44.5299  -19.7109  102.1541 H   0  0  0  0  0  0  0  0  0  0  0  0
   44.7527  -20.6944  103.5268 H   0  0  0  0  0  0  0  0  0  0  0  0
   44.0837  -18.1032  103.2425 H   0  0  0  0  0  0  0  0  0  0  0  0
   45.5998  -18.4253  105.4593 H   0  0  0  0  0  0  0  0  0  0  0  0
   44.7417  -16.1881  104.5578 H   0  0  0  0  0  0  0  0  0  0  0  0
   46.3715  -17.2953  102.8285 H   0  0  0  0  0  0  0  0  0  0  0  0
   48.3308  -17.3274  103.8110 H   0  0  0  0  0  0  0  0  0  0  0  0
   46.8356  -20.0754  103.9751 H   0  0  0  0  0  0  0  0  0  0  0  0
   46.3686  -18.5418  100.4723 H   0  0  0  0  0  0  0  0  0  0  0  0
   50.7452  -22.7498   98.8045 H   0  0  0  0  0  0  0  0  0  0  0  0
   49.7452  -21.4242   98.2350 H   0  0  0  0  0  0  0  0  0  0  0  0
   49.7298  -23.3123  103.2386 H   0  0  0  0  0  0  0  0  0  0  0  0
  1  2  1  0
  1  4  1  0
  1 20  1  0
  1 21  1  0
  2 22  1  0
  3  4  1  0
  3  9  1  0
  3 23  1  0
  3 24  1  0
  4  5  1  0
  4 25  1  6
  5  6  1  0
  5  7  1  0
  5 26  1  1
  6 27  1  0
  7  8  1  0
  7  9  1  0
  7 28  1  6
  8 29  1  0
  9 10  1  0
  9 30  1  1
 10 11  1  0
 10 19  1  0
 11 12  2  0
 11 31  1  0
 12 13  1  0
 13 14  2  0
 13 19  1  0
 14 15  1  0
 14 16  1  0
 15 32  1  0
 15 33  1  0
 16 17  2  0
 17 18  1  0
 17 34  1  0
 18 19  2  0
M  END
$$$$
