RDR_ref
     RDKit          3D

 55 59  0  0  1  0  0  0  0  0999 V2000
    3.0240    1.4970   19.6010 O   0  0  0  0  0  0  0  0  0  0  0  0
    3.6290    1.2890   18.3300 C   0  0  0  0  0  0  0  0  0  0  0  0
    4.6490    2.4260   18.0790 C   0  0  0  0  0  0  0  0  0  0  0  0
    5.8630    2.3630   18.9590 N   0  0  0  0  0  0  0  0  0  0  0  0
    6.9980    1.6170   18.5910 C   0  0  0  0  0  0  0  0  0  0  0  0
    7.9620    1.7650   19.6380 C   0  0  0  0  0  0  0  0  0  0  0  0
    9.1910    1.1150   19.5130 C   0  0  0  0  0  0  0  0  0  0  0  0
    9.4950    0.3450   18.4150 N   0  0  0  0  0  0  0  0  0  0  0  0
    8.5770    0.2060   17.4160 C   0  0  0  0  0  0  0  0  0  0  0  0
    7.3110    0.8300   17.4710 C   0  0  0  0  0  0  0  0  0  0  0  0
    7.3740    2.6180   20.6430 C   0  0  0  0  0  0  0  0  0  0  0  0
    6.0850    2.9620   20.1790 C   0  0  0  0  0  0  0  0  0  0  0  0
    5.0250    3.8540   20.8600 C   0  0  0  0  0  0  0  0  0  0  0  0
    5.4810    5.0590   21.6000 N   0  0  0  0  0  0  0  0  0  0  0  0
    5.0590    5.2490   22.9140 C   0  0  0  0  0  0  0  0  0  0  0  0
    4.3260    4.4710   23.5090 O   0  0  0  0  0  0  0  0  0  0  0  0
    5.5690    6.5220   23.6350 C   0  0  0  0  0  0  0  0  0  0  0  0
    6.0490    7.6170   22.7620 N   0  0  0  0  0  0  0  0  0  0  0  0
    7.0310    7.0800   21.7900 C   0  0  0  0  0  0  0  0  0  0  0  0
    6.3750    6.0220   20.8810 C   0  0  0  0  0  0  0  0  0  0  0  0
    6.6240    9.0390   23.6600 S   0  0  0  0  0  0  0  0  0  0  0  0
    5.6180    9.2810   24.6610 O   0  0  0  0  0  0  0  0  0  0  0  0
    6.8390   10.0160   22.6250 O   0  0  0  0  0  0  0  0  0  0  0  0
    8.1260    8.6830   24.4200 C   0  0  0  0  0  0  0  0  0  0  0  0
    8.1590    8.0810   25.6900 C   0  0  0  0  0  0  0  0  0  0  0  0
    9.5230    7.8410   26.1410 C   0  0  0  0  0  0  0  0  0  0  0  0
   10.4700    8.2970   25.1410 C   0  0  0  0  0  0  0  0  0  0  0  0
    9.6780    8.9630   23.7900 S   0  0  0  0  0  0  0  0  0  0  0  0
   11.8340    8.1450   25.3740 C   0  0  0  0  0  0  0  0  0  0  0  0
   12.2780    7.5450   26.5740 C   0  0  0  0  0  0  0  0  0  0  0  0
   13.9650    7.3450   26.8310 Cl  0  0  0  0  0  0  0  0  0  0  0  0
   11.3680    7.1010   27.5620 C   0  0  0  0  0  0  0  0  0  0  0  0
    9.9810    7.2570   27.3230 C   0  0  0  0  0  0  0  0  0  0  0  0
    3.6677    1.3112   20.2907 H   0  0  0  0  0  0  0  0  0  0  0  0
    2.8812    1.2437   17.5377 H   0  0  0  0  0  0  0  0  0  0  0  0
    4.1334    0.3224   18.3521 H   0  0  0  0  0  0  0  0  0  0  0  0
    4.1895    3.4145   18.0922 H   0  0  0  0  0  0  0  0  0  0  0  0
    5.0105    2.3314   17.0545 H   0  0  0  0  0  0  0  0  0  0  0  0
    9.9754    1.1688   20.2317 H   0  0  0  0  0  0  0  0  0  0  0  0
   10.3922   -0.1342   18.3532 H   0  0  0  0  0  0  0  0  0  0  0  0
    8.8867   -0.4258   16.5960 H   0  0  0  0  0  0  0  0  0  0  0  0
    6.6109    0.6888   16.6606 H   0  0  0  0  0  0  0  0  0  0  0  0
    7.8058    2.9477   21.5757 H   0  0  0  0  0  0  0  0  0  0  0  0
    4.3982    3.2352   21.4759 H   0  0  0  0  0  0  0  0  0  0  0  0
    4.3543    4.2448   20.0962 H   0  0  0  0  0  0  0  0  0  0  0  0
    6.3297    6.2465   24.3654 H   0  0  0  0  0  0  0  0  0  0  0  0
    4.7001    6.9057   24.1712 H   0  0  0  0  0  0  0  0  0  0  0  0
    7.8432    6.5922   22.3323 H   0  0  0  0  0  0  0  0  0  0  0  0
    7.3838    7.9034   21.1681 H   0  0  0  0  0  0  0  0  0  0  0  0
    5.7669    6.5180   20.1236 H   0  0  0  0  0  0  0  0  0  0  0  0
    7.1744    5.4607   20.3967 H   0  0  0  0  0  0  0  0  0  0  0  0
    7.2775    7.8352   26.2546 H   0  0  0  0  0  0  0  0  0  0  0  0
   12.5555    8.4657   24.6377 H   0  0  0  0  0  0  0  0  0  0  0  0
   11.7232    6.6321   28.4643 H   0  0  0  0  0  0  0  0  0  0  0  0
    9.2778    6.9123   28.0677 H   0  0  0  0  0  0  0  0  0  0  0  0
  1  2  1  0
  1 34  1  0
  2  3  1  0
  2 35  1  0
  2 36  1  0
  3  4  1  0
  3 37  1  0
  3 38  1  0
  4  5  1  0
  4 12  1  0
  5  6  2  0
  5 10  1  0
  6  7  1  0
  6 11  1  0
  7  8  2  0
  7 39  1  0
  8  9  1  0
  8 40  1  0
  9 10  2  0
  9 41  1  0
 10 42  1  0
 11 12  2  0
 11 43  1  0
 12 13  1  0
 13 14  1  0
 13 44  1  0
 13 45  1  0
 14 15  1  0
 14 20  1  0
 15 16  2  0
 15 17  1  0
 17 18  1  0
 17 46  1  0
 17 47  1  0
 18 19  1  0
 18 21  1  0
 19 20  1  0
 19 48  1  0
 19 49  1  0
 20 50  1  0
 20 51  1  0
 21 22  2  0
 21 23  2  0
 21 24  1  0
 24 25  2  0
 24 28  1  0
 25 26  1  0
 25 52  1  0
 26 27  2  0
 26 33  1  0
 27 28  1  0
 27 29  1  0
 29 30  2  0
 29 53  1  0
 30 31  1  0
 30 32  1  0
 32 33  2  0
 32 54  1  0
 33 55  1  0
M  CHG  1   8   1
M  END
$$$$
