NW1_ref
     RDKit          3D

 35 36  0  0  1  0  0  0  0  0999 V2000
    2.1630   28.4110    7.1980 N   0  0  0  0  0  0  0  0  0  0  0  0
    1.2250   28.4780    8.1800 C   0  0  0  0  0  0  0  0  0  0  0  0
    0.9650   27.3090    8.8980 O   0  0  0  0  0  0  0  0  0  0  0  0
    1.9190   26.2340    8.6810 C   0  0  0  0  0  0  0  0  0  0  0  0
    1.6440   25.2190    9.7930 C   0  0  0  0  0  0  0  0  0  0  0  0
    0.1380   25.0120   10.0520 C   0  0  0  0  0  0  0  0  0  0  0  0
   -0.0450   24.0560   11.2680 C   0  0  0  0  0  0  0  0  0  0  0  0
    0.6520   22.6910   10.9410 C   0  0  0  0  0  0  0  0  0  0  0  0
    2.1770   22.9700   10.8330 C   0  0  0  0  0  0  0  0  0  0  0  0
    2.3790   23.8680    9.5680 C   0  0  0  0  0  0  0  0  0  0  0  0
    0.5130   29.7550    8.4910 C   0  0  0  0  0  0  0  0  0  0  0  0
   -0.4380   29.6840    9.5840 N   0  0  0  0  0  0  0  0  0  0  0  0
   -1.0670   30.7150    9.8740 O   0  0  0  0  0  0  0  0  0  0  0  0
    0.8580   30.8220    7.7690 C   0  0  0  0  0  0  0  0  0  0  0  0
    0.3240   31.9930    7.9600 N   0  0  0  0  0  0  0  0  0  0  0  0
    1.8720   30.6210    6.7240 N   0  0  0  0  0  0  0  0  0  0  0  0
    2.4880   29.5500    6.4660 C   0  0  0  0  0  0  0  0  0  0  0  0
    3.4110   29.4190    5.5470 N   0  0  0  0  0  0  0  0  0  0  0  0
    2.9649   26.5492    8.7137 H   0  0  0  0  0  0  0  0  0  0  0  0
    1.6898   25.7979    7.7237 H   0  0  0  0  0  0  0  0  0  0  0  0
    2.0579   25.6469   10.7091 H   0  0  0  0  0  0  0  0  0  0  0  0
   -0.3403   24.6103    9.1570 H   0  0  0  0  0  0  0  0  0  0  0  0
   -0.3920   25.9398   10.2504 H   0  0  0  0  0  0  0  0  0  0  0  0
   -1.1086   23.8976   11.4410 H   0  0  0  0  0  0  0  0  0  0  0  0
    0.3596   24.5034   12.1776 H   0  0  0  0  0  0  0  0  0  0  0  0
    0.2526   22.2451   10.0283 H   0  0  0  0  0  0  0  0  0  0  0  0
    0.4641   21.9779   11.7442 H   0  0  0  0  0  0  0  0  0  0  0  0
    2.7209   22.0327   10.7116 H   0  0  0  0  0  0  0  0  0  0  0  0
    2.5808   23.4535   11.7200 H   0  0  0  0  0  0  0  0  0  0  0  0
    3.4412   24.0449    9.4042 H   0  0  0  0  0  0  0  0  0  0  0  0
    2.0317   23.3605    8.6723 H   0  0  0  0  0  0  0  0  0  0  0  0
    0.5438   32.7643    7.3387 H   0  0  0  0  0  0  0  0  0  0  0  0
   -0.3827   32.0833    8.6766 H   0  0  0  0  0  0  0  0  0  0  0  0
    3.8575   30.2430    5.1578 H   0  0  0  0  0  0  0  0  0  0  0  0
    3.8558   28.5176    5.4526 H   0  0  0  0  0  0  0  0  0  0  0  0
  1  2  2  0
  1 17  1  0
  2  3  1  0
  2 11  1  0
  3  4  1  0
  4  5  1  0
  4 19  1  0
  4 20  1  0
  5  6  1  0
  5 10  1  0
  5 21  1  0
  6  7  1  0
  6 22  1  0
  6 23  1  0
  7  8  1  0
  7 24  1  0
  7 25  1  0
  8  9  1  0
  8 26  1  0
  8 27  1  0
  9 10  1  0
  9 28  1  0
  9 29  1  0
 10 30  1  0
 10 31  1  0
 11 12  1  0
 11 14  2  0
 12 13  2  0
 14 15  1  0
 14 16  1  0
 15 32  1  0
 15 33  1  0
 16 17  2  0
 17 18  1  0
 18 34  1  0
 18 35  1  0
M  END
$$$$
