15G_ref
     RDKit          3D

 45 48  0  0  1  0  0  0  0  0999 V2000
    5.7960    3.1420    0.3160 C   0  0  0  0  0  0  0  0  0  0  0  0
    5.1110    1.9140    0.6180 C   0  0  0  0  0  0  0  0  0  0  0  0
    3.7650    1.8410    0.1060 C   0  0  0  0  0  0  0  0  0  0  0  0
   -3.9820    1.3070   -5.2470 C   0  0  0  0  0  0  0  0  0  0  0  0
   -1.9830    5.1030   -5.8610 C   0  0  0  0  0  0  0  0  0  0  0  0
   -1.3900    6.1710   -6.5600 C   0  0  0  0  0  0  0  0  0  0  0  0
   -1.9680    6.9920   -7.5320 C   0  0  0  0  0  0  0  0  0  0  0  0
    0.3530    7.9390   -7.9400 C   0  0  0  0  0  0  0  0  0  0  0  0
    0.8970    7.3370   -6.6370 C   0  0  0  0  0  0  0  0  0  0  0  0
   -0.0820    6.2980   -6.1310 C   0  0  0  0  0  0  0  0  0  0  0  0
   -0.9760    4.6090   -5.0130 C   0  0  0  0  0  0  0  0  0  0  0  0
   -1.0570    3.4110   -4.0510 C   0  0  0  0  0  0  0  0  0  0  0  0
    0.0300    3.2630   -3.1110 C   0  0  0  0  0  0  0  0  0  0  0  0
   -0.0090    2.1340   -2.2320 C   0  0  0  0  0  0  0  0  0  0  0  0
    1.1150    1.8820   -1.2540 C   0  0  0  0  0  0  0  0  0  0  0  0
   -3.1600    6.8990   -7.8450 O   0  0  0  0  0  0  0  0  0  0  0  0
   -1.1290    7.9040   -8.1130 N   0  0  0  0  0  0  0  0  0  0  0  0
    0.1640    5.3600   -5.2030 N   0  0  0  0  0  0  0  0  0  0  0  0
   -2.1010    2.3800   -3.9980 C   0  0  0  0  0  0  0  0  0  0  0  0
   -2.0720    1.2630   -3.0630 C   0  0  0  0  0  0  0  0  0  0  0  0
   -1.0240    1.1950   -2.2230 N   0  0  0  0  0  0  0  0  0  0  0  0
   -3.1800    2.4730   -4.9080 O   0  0  0  0  0  0  0  0  0  0  0  0
    1.9310    3.0530   -1.1950 O   0  0  0  0  0  0  0  0  0  0  0  0
    3.2020    2.9670   -0.6570 C   0  0  0  0  0  0  0  0  0  0  0  0
    3.9200    4.1740   -0.9390 C   0  0  0  0  0  0  0  0  0  0  0  0
    5.2180    4.2040   -0.4200 C   0  0  0  0  0  0  0  0  0  0  0  0
    7.0640    3.4210    0.7050 F   0  0  0  0  0  0  0  0  0  0  0  0
    5.9690    5.2530   -0.5800 F   0  0  0  0  0  0  0  0  0  0  0  0
    5.5819    1.1455    1.1924 H   0  0  0  0  0  0  0  0  0  0  0  0
    3.1759    0.9556    0.2933 H   0  0  0  0  0  0  0  0  0  0  0  0
   -4.6944    1.5748   -6.0272 H   0  0  0  0  0  0  0  0  0  0  0  0
   -3.3601    0.4968   -5.6231 H   0  0  0  0  0  0  0  0  0  0  0  0
   -4.5500    0.9470   -4.3903 H   0  0  0  0  0  0  0  0  0  0  0  0
   -2.9944    4.7379   -5.9657 H   0  0  0  0  0  0  0  0  0  0  0  0
    0.6878    7.1942   -8.6461 H   0  0  0  0  0  0  0  0  0  0  0  0
    0.8088    8.8953   -8.1834 H   0  0  0  0  0  0  0  0  0  0  0  0
    1.0135    8.1160   -5.8948 H   0  0  0  0  0  0  0  0  0  0  0  0
    1.8926    6.9199   -6.7893 H   0  0  0  0  0  0  0  0  0  0  0  0
    0.8498    3.9617   -3.0948 H   0  0  0  0  0  0  0  0  0  0  0  0
    1.6898    1.0278   -1.6166 H   0  0  0  0  0  0  0  0  0  0  0  0
    0.7656    1.6496   -0.2616 H   0  0  0  0  0  0  0  0  0  0  0  0
   -1.5139    8.4737   -8.8537 H   0  0  0  0  0  0  0  0  0  0  0  0
    1.0542    5.2049   -4.7480 H   0  0  0  0  0  0  0  0  0  0  0  0
   -2.7907    0.4742   -3.0574 H   0  0  0  0  0  0  0  0  0  0  0  0
    3.5064    4.9939   -1.5038 H   0  0  0  0  0  0  0  0  0  0  0  0
  1  2  2  0
  1 26  1  0
  1 27  1  0
  2  3  1  0
  2 29  1  0
  3 24  2  0
  3 30  1  0
  4 22  1  0
  4 31  1  0
  4 32  1  0
  4 33  1  0
  5  6  1  0
  5 11  2  0
  5 34  1  0
  6  7  1  0
  6 10  2  0
  7 16  2  0
  7 17  1  0
  8  9  1  0
  8 17  1  0
  8 35  1  0
  8 36  1  0
  9 10  1  0
  9 37  1  0
  9 38  1  0
 10 18  1  0
 11 12  1  0
 11 18  1  0
 12 13  2  0
 12 19  1  0
 13 14  1  0
 13 39  1  0
 14 15  1  0
 14 21  2  0
 15 23  1  0
 15 40  1  0
 15 41  1  0
 17 42  1  0
 18 43  1  0
 19 20  2  0
 19 22  1  0
 20 21  1  0
 20 44  1  0
 23 24  1  0
 24 25  1  0
 25 26  2  0
 25 45  1  0
 26 28  1  0
M  END
$$$$
