7OG_ref
     RDKit          3D

 49 53  0  0  1  0  0  0  0  0999 V2000
   36.7930  -28.2430   10.6220 C   0  0  0  0  0  0  0  0  0  0  0  0
   38.7360  -27.5520   11.0000 C   0  0  0  0  0  0  0  0  0  0  0  0
   37.9650  -28.9160    7.1560 C   0  0  1  0  0  0  0  0  0  0  0  0
   39.0060  -27.6720    5.4330 N   0  0  0  0  0  0  0  0  0  0  0  0
   38.0860  -27.5550    6.5270 C   0  0  0  0  0  0  0  0  0  0  0  0
   38.4960  -30.0490    5.0090 C   0  0  0  0  0  0  0  0  0  0  0  0
   41.2810  -25.2920    8.4260 C   0  0  0  0  0  0  0  0  0  0  0  0
   41.4060  -23.9780    8.0200 C   0  0  0  0  0  0  0  0  0  0  0  0
   41.0890  -23.6160    6.7250 C   0  0  0  0  0  0  0  0  0  0  0  0
   33.5780  -29.5290    9.5540 C   0  0  0  0  0  0  0  0  0  0  0  0
   42.0480  -24.6870   10.6190 C   0  0  0  0  0  0  0  0  0  0  0  0
   41.8510  -23.0290    8.9170 C   0  0  0  0  0  0  0  0  0  0  0  0
   42.1690  -23.3770   10.2070 C   0  0  0  0  0  0  0  0  0  0  0  0
   41.6030  -25.6320    9.7220 C   0  0  0  0  0  0  0  0  0  0  0  0
   40.6520  -24.5640    5.8250 C   0  0  0  0  0  0  0  0  0  0  0  0
   40.8350  -26.2440    7.5310 C   0  0  0  0  0  0  0  0  0  0  0  0
   40.5210  -25.8700    6.2490 C   0  0  0  0  0  0  0  0  0  0  0  0
   35.7490  -29.2460    8.2780 C   0  0  0  0  0  0  0  0  0  0  0  0
   37.0270  -28.8470    8.3090 C   0  0  0  0  0  0  0  0  0  0  0  0
   35.0130  -29.0950    9.5470 C   0  0  0  0  0  0  0  0  0  0  0  0
   40.0940  -26.8560    5.2530 C   0  0  0  0  0  0  0  0  0  0  0  0
   37.5460  -29.9850    6.1760 C   0  0  0  0  0  0  0  0  0  0  0  0
   38.7300  -28.6710    4.4200 C   0  0  0  0  0  0  0  0  0  0  0  0
   37.5210  -27.7470   11.5950 N   0  0  0  0  0  0  0  0  0  0  0  0
   38.7850  -27.9080    9.7140 N   0  0  0  0  0  0  0  0  0  0  0  0
   35.5030  -28.6310   10.6450 N   0  0  0  0  0  0  0  0  0  0  0  0
   37.5390  -28.3500    9.4800 N   0  0  0  0  0  0  0  0  0  0  0  0
   40.8360  -26.9200    4.2830 O   0  0  0  0  0  0  0  0  0  0  0  0
   39.5957  -27.1034   11.4494 H   0  0  0  0  0  0  0  0  0  0  0  0
   38.9353  -29.2189    7.5567 H   0  0  0  0  0  0  0  0  0  0  0  0
   38.4005  -26.8230    7.2686 H   0  0  0  0  0  0  0  0  0  0  0  0
   37.1194  -27.2447    6.1262 H   0  0  0  0  0  0  0  0  0  0  0  0
   38.1247  -30.7242    4.2381 H   0  0  0  0  0  0  0  0  0  0  0  0
   39.4507  -30.4669    5.3338 H   0  0  0  0  0  0  0  0  0  0  0  0
   41.1967  -22.5873    6.4120 H   0  0  0  0  0  0  0  0  0  0  0  0
   33.4415  -30.3228   10.2862 H   0  0  0  0  0  0  0  0  0  0  0  0
   32.9236  -28.6975    9.8116 H   0  0  0  0  0  0  0  0  0  0  0  0
   33.2657  -29.9189    8.5861 H   0  0  0  0  0  0  0  0  0  0  0  0
   42.2716  -24.9663   11.6342 H   0  0  0  0  0  0  0  0  0  0  0  0
   41.9460  -21.9982    8.6049 H   0  0  0  0  0  0  0  0  0  0  0  0
   42.5127  -22.6215   10.8977 H   0  0  0  0  0  0  0  0  0  0  0  0
   41.5072  -26.6597   10.0428 H   0  0  0  0  0  0  0  0  0  0  0  0
   40.4161  -24.2646    4.8123 H   0  0  0  0  0  0  0  0  0  0  0  0
   40.7466  -27.2733    7.8499 H   0  0  0  0  0  0  0  0  0  0  0  0
   35.2640  -29.6415    7.4061 H   0  0  0  0  0  0  0  0  0  0  0  0
   36.5683  -29.7586    5.7502 H   0  0  0  0  0  0  0  0  0  0  0  0
   37.4894  -30.9729    6.6292 H   0  0  0  0  0  0  0  0  0  0  0  0
   39.5134  -28.7656    3.6663 H   0  0  0  0  0  0  0  0  0  0  0  0
   37.8159  -28.3617    3.9155 H   0  0  0  0  0  0  0  0  0  0  0  0
  1 24  2  0
  1 26  1  0
  1 27  1  0
  2 24  1  0
  2 25  2  0
  2 29  1  0
  3  5  1  0
  3 19  1  0
  3 22  1  0
  3 30  1  1
  4  5  1  0
  4 21  1  0
  4 23  1  0
  5 31  1  0
  5 32  1  0
  6 22  1  0
  6 23  1  0
  6 33  1  0
  6 34  1  0
  7  8  1  0
  7 14  1  0
  7 16  2  0
  8  9  2  0
  8 12  1  0
  9 15  1  0
  9 35  1  0
 10 20  1  0
 10 36  1  0
 10 37  1  0
 10 38  1  0
 11 13  1  0
 11 14  2  0
 11 39  1  0
 12 13  2  0
 12 40  1  0
 13 41  1  0
 14 42  1  0
 15 17  2  0
 15 43  1  0
 16 17  1  0
 16 44  1  0
 17 21  1  0
 18 19  2  0
 18 20  1  0
 18 45  1  0
 19 27  1  0
 20 26  2  0
 21 28  2  0
 22 46  1  0
 22 47  1  0
 23 48  1  0
 23 49  1  0
 25 27  1  0
M  END
$$$$
