obj01
 OpenBabel07022504003D

 75 82  0  0  0  0  0  0  0  0999 V2000
    2.3006    3.7124  -23.8537 C   0  0  0  0  0  0  0  0  0  0  0  0
    1.9085    5.9696  -23.0186 N   0  0  0  0  0  0  0  0  0  0  0  0
    3.7017    7.2379  -22.4330 O   0  0  0  0  0  0  0  0  0  0  0  0
    1.4569    4.8039  -23.5583 C   0  0  0  0  0  0  0  0  0  0  0  0
    4.1432    5.0863  -23.0760 N   0  0  0  0  0  0  0  0  0  0  0  0
   -3.6446    3.6720  -27.9902 O   0  0  0  0  0  0  0  0  0  0  0  0
    3.2270    6.0311  -22.8596 C   0  0  0  0  0  0  0  0  0  0  0  0
    0.4794    2.4736  -24.8389 N   0  0  0  0  0  0  0  0  0  0  0  0
    3.6946    3.9278  -23.5291 C   0  0  0  0  0  0  0  0  0  0  0  0
    4.6344    2.8977  -23.7020 N   0  0  0  0  0  0  0  0  0  0  0  0
    1.7810    2.5869  -24.5234 C   0  0  0  0  0  0  0  0  0  0  0  0
    6.6853    1.1937  -22.5576 N   0  0  0  0  0  0  0  0  0  0  0  0
   -0.3617    3.3603  -24.4274 C   0  0  0  0  0  0  0  0  0  0  0  0
    5.0790    9.5933  -23.2873 N   0  0  1  0  0  0  0  0  0  0  0  0
    0.1375    4.5884  -23.8197 C   0  0  0  0  0  0  0  0  0  0  0  0
   -1.8117    3.3404  -24.7926 C   0  0  0  0  0  0  0  0  0  0  0  0
    5.0960    7.3300  -22.1142 C   0  0  0  0  0  0  0  0  0  0  0  0
    4.3447    1.4411  -23.2396 C   0  0  0  0  0  0  0  0  0  0  0  0
    5.2757    1.0992  -22.0870 C   0  0  2  0  0  0  0  0  0  0  0  0
    6.8443    2.6706  -22.6061 C   0  0  1  0  0  0  0  0  0  0  0  0
    6.0947    3.2355  -23.8081 C   0  0  0  0  0  0  0  0  0  0  0  0
    6.2160    3.0865  -21.2581 C   0  0  0  0  0  0  0  0  0  0  0  0
    5.2303    2.0956  -20.9173 C   0  0  0  0  0  0  0  0  0  0  0  0
   -2.1289    3.4978  -26.2233 C   0  0  0  0  0  0  0  0  0  0  0  0
   -3.4829    3.6557  -26.5992 C   0  0  0  0  0  0  0  0  0  0  0  0
   -4.4982    3.7395  -25.7436 C   0  0  0  0  0  0  0  0  0  0  0  0
   -4.2555    3.6128  -24.4070 C   0  0  0  0  0  0  0  0  0  0  0  0
   -2.9067    3.3743  -23.8760 C   0  0  0  0  0  0  0  0  0  0  0  0
   -5.3124    3.6429  -23.4049 C   0  0  0  0  0  0  0  0  0  0  0  0
   -5.0528    3.4550  -22.0684 C   0  0  0  0  0  0  0  0  0  0  0  0
   -3.8130    3.2243  -21.7176 C   0  0  0  0  0  0  0  0  0  0  0  0
   -2.7532    3.1284  -22.4547 C   0  0  0  0  0  0  0  0  0  0  0  0
    5.3809    8.8793  -21.9858 C   0  0  2  0  0  0  0  0  0  0  0  0
    4.4128    9.5183  -20.9329 C   0  0  0  0  0  0  0  0  0  0  0  0
    3.9684   10.8147  -21.6006 C   0  0  2  0  0  0  0  0  0  0  0  0
    3.8984   10.4754  -23.0736 C   0  0  0  0  0  0  0  0  0  0  0  0
    6.3201   10.2814  -23.7114 C   0  0  0  0  0  0  0  0  0  0  0  0
    7.4171    9.4338  -23.0979 C   0  0  0  0  0  0  0  0  0  0  0  0
    6.8731    9.0933  -21.6580 C   0  0  0  0  0  0  0  0  0  0  0  0
   -1.4056    2.7377  -21.8470 C   0  0  0  0  0  0  0  0  0  0  0  0
   -0.3732    2.4081  -21.3338 C   0  0  0  0  0  0  0  0  0  0  0  0
   -0.7268    5.6157  -23.4787 F   0  0  0  0  0  0  0  0  0  0  0  0
    4.9360   11.7811  -21.3512 F   0  0  0  0  0  0  0  0  0  0  0  0
   -3.6091    2.9806  -20.3346 F   0  0  0  0  0  0  0  0  0  0  0  0
   -2.8955    3.6100  -28.5497 H   0  0  0  0  0  0  0  0  0  0  0  0
    2.4234    1.8214  -24.7811 H   0  0  0  0  0  0  0  0  0  0  0  0
    6.8063    0.7698  -23.4774 H   0  0  0  0  0  0  0  0  0  0  0  0
    5.6899    6.9012  -22.8942 H   0  0  0  0  0  0  0  0  0  0  0  0
    5.3407    6.7993  -21.2179 H   0  0  0  0  0  0  0  0  0  0  0  0
    4.5144    0.7654  -24.0517 H   0  0  0  0  0  0  0  0  0  0  0  0
    3.3264    1.3559  -22.9223 H   0  0  0  0  0  0  0  0  0  0  0  0
    4.9601    0.1296  -21.7628 H   0  0  0  0  0  0  0  0  0  0  0  0
    7.8475    3.0238  -22.7232 H   0  0  0  0  0  0  0  0  0  0  0  0
    6.2125    4.2987  -23.8326 H   0  0  0  0  0  0  0  0  0  0  0  0
    6.4919    2.8080  -24.7050 H   0  0  0  0  0  0  0  0  0  0  0  0
    5.7522    4.0462  -21.3517 H   0  0  0  0  0  0  0  0  0  0  0  0
    6.9650    3.1509  -20.4967 H   0  0  0  0  0  0  0  0  0  0  0  0
    5.4816    1.6116  -19.9967 H   0  0  0  0  0  0  0  0  0  0  0  0
    4.2572    2.5176  -20.7764 H   0  0  0  0  0  0  0  0  0  0  0  0
   -1.3805    3.4929  -26.9339 H   0  0  0  0  0  0  0  0  0  0  0  0
   -5.4583    3.8985  -26.0870 H   0  0  0  0  0  0  0  0  0  0  0  0
   -6.2848    3.8103  -23.7075 H   0  0  0  0  0  0  0  0  0  0  0  0
   -5.8083    3.4944  -21.3665 H   0  0  0  0  0  0  0  0  0  0  0  0
    4.9239    9.7168  -20.0141 H   0  0  0  0  0  0  0  0  0  0  0  0
    3.5940    8.8788  -20.6769 H   0  0  0  0  0  0  0  0  0  0  0  0
    3.0319   11.1922  -21.2464 H   0  0  0  0  0  0  0  0  0  0  0  0
    2.9897    9.9596  -23.3039 H   0  0  0  0  0  0  0  0  0  0  0  0
    3.9088   11.3424  -23.7005 H   0  0  0  0  0  0  0  0  0  0  0  0
    6.3520   11.2818  -23.3330 H   0  0  0  0  0  0  0  0  0  0  0  0
    6.4061   10.3717  -24.7741 H   0  0  0  0  0  0  0  0  0  0  0  0
    8.3338    9.9824  -23.0386 H   0  0  0  0  0  0  0  0  0  0  0  0
    7.6338    8.5589  -23.6746 H   0  0  0  0  0  0  0  0  0  0  0  0
    7.3244    8.2080  -21.2611 H   0  0  0  0  0  0  0  0  0  0  0  0
    7.0712    9.8344  -20.9121 H   0  0  0  0  0  0  0  0  0  0  0  0
    0.4826    2.1349  -20.9084 H   0  0  0  0  0  0  0  0  0  0  0  0
  1  4  2  0  0  0  0
  1  9  1  0  0  0  0
  1 11  1  0  0  0  0
  2  4  1  0  0  0  0
  2  7  2  0  0  0  0
  3  7  1  0  0  0  0
  3 17  1  0  0  0  0
  4 15  1  0  0  0  0
  5  7  1  0  0  0  0
  5  9  2  0  0  0  0
  6 25  1  0  0  0  0
  6 45  1  0  0  0  0
  8 11  2  0  0  0  0
  8 13  1  0  0  0  0
  9 10  1  0  0  0  0
 10 18  1  0  0  0  0
 10 21  1  0  0  0  0
 11 46  1  0  0  0  0
 12 19  1  0  0  0  0
 12 20  1  0  0  0  0
 12 47  1  0  0  0  0
 13 15  2  0  0  0  0
 13 16  1  0  0  0  0
 14 33  1  0  0  0  0
 14 36  1  1  0  0  0
 14 37  1  0  0  0  0
 15 42  1  0  0  0  0
 16 24  1  0  0  0  0
 16 28  2  0  0  0  0
 17 48  1  0  0  0  0
 17 49  1  0  0  0  0
 18 19  1  0  0  0  0
 18 50  1  0  0  0  0
 18 51  1  0  0  0  0
 19 23  1  0  0  0  0
 19 52  1  1  0  0  0
 20 21  1  0  0  0  0
 20 22  1  0  0  0  0
 20 53  1  6  0  0  0
 21 54  1  0  0  0  0
 21 55  1  0  0  0  0
 22 23  1  0  0  0  0
 22 56  1  0  0  0  0
 22 57  1  0  0  0  0
 23 58  1  0  0  0  0
 23 59  1  0  0  0  0
 24 25  2  0  0  0  0
 24 60  1  0  0  0  0
 25 26  1  0  0  0  0
 26 27  2  0  0  0  0
 26 61  1  0  0  0  0
 27 28  1  0  0  0  0
 27 29  1  0  0  0  0
 28 32  1  0  0  0  0
 29 30  2  0  0  0  0
 29 62  1  0  0  0  0
 30 31  1  0  0  0  0
 30 63  1  0  0  0  0
 31 32  2  0  0  0  0
 31 44  1  0  0  0  0
 32 40  1  0  0  0  0
 33 17  1  6  0  0  0
 33 34  1  0  0  0  0
 33 39  1  0  0  0  0
 34 35  1  0  0  0  0
 34 64  1  0  0  0  0
 34 65  1  0  0  0  0
 35 36  1  0  0  0  0
 35 43  1  0  0  0  0
 35 66  1  1  0  0  0
 36 67  1  0  0  0  0
 36 68  1  0  0  0  0
 37 38  1  0  0  0  0
 37 69  1  0  0  0  0
 37 70  1  0  0  0  0
 38 39  1  0  0  0  0
 38 71  1  0  0  0  0
 38 72  1  0  0  0  0
 39 73  1  0  0  0  0
 39 74  1  0  0  0  0
 40 41  3  0  0  0  0
 41 75  1  0  0  0  0
M  END
$$$$
