3PF_ref
     RDKit          3D

 22 23  0  0  1  0  0  0  0  0999 V2000
   10.8610   -4.0360    2.2690 C   0  0  0  0  0  0  0  0  0  0  0  0
   12.7090   -5.0250    0.5830 O   0  0  0  0  0  0  0  0  0  0  0  0
    7.4180   -7.8300   -1.0400 C   0  0  0  0  0  0  0  0  0  0  0  0
    8.4380   -8.2970   -1.8660 C   0  0  0  0  0  0  0  0  0  0  0  0
    7.6900   -6.8970   -0.0460 C   0  0  0  0  0  0  0  0  0  0  0  0
    9.7350   -7.8180   -1.7100 C   0  0  0  0  0  0  0  0  0  0  0  0
    9.3160   -5.4670    1.1170 C   0  0  0  0  0  0  0  0  0  0  0  0
   11.3170   -6.3980   -0.5150 N   0  0  0  0  0  0  0  0  0  0  0  0
   11.5780   -5.4560    0.4440 C   0  0  0  0  0  0  0  0  0  0  0  0
    9.0270   -6.4120    0.1200 C   0  0  0  0  0  0  0  0  0  0  0  0
   10.0200   -6.8640   -0.6860 C   0  0  0  0  0  0  0  0  0  0  0  0
   10.5730   -5.0100    1.2590 N   0  0  0  0  0  0  0  0  0  0  0  0
   11.7611   -4.2851    2.8275 H   0  0  0  0  0  0  0  0  0  0  0  0
   10.9825   -3.0473    1.8253 H   0  0  0  0  0  0  0  0  0  0  0  0
   10.0501   -3.9761    2.9935 H   0  0  0  0  0  0  0  0  0  0  0  0
    6.4094   -8.1911   -1.1762 H   0  0  0  0  0  0  0  0  0  0  0  0
    8.2202   -9.0229   -2.6354 H   0  0  0  0  0  0  0  0  0  0  0  0
    6.8908   -6.5402    0.5866 H   0  0  0  0  0  0  0  0  0  0  0  0
   10.5024   -8.1851   -2.3708 H   0  0  0  0  0  0  0  0  0  0  0  0
    9.0158   -5.8975    2.0741 H   0  0  0  0  0  0  0  0  0  0  0  0
    8.6679   -4.6031    0.9777 H   0  0  0  0  0  0  0  0  0  0  0  0
   12.0775   -6.7383   -1.0927 H   0  0  0  0  0  0  0  0  0  0  0  0
  1 12  1  0
  1 13  1  0
  1 14  1  0
  1 15  1  0
  2  9  2  0
  3  4  2  0
  3  5  1  0
  3 16  1  0
  4  6  1  0
  4 17  1  0
  5 10  2  0
  5 18  1  0
  6 11  2  0
  6 19  1  0
  7 10  1  0
  7 12  1  0
  7 20  1  0
  7 21  1  0
  8  9  1  0
  8 11  1  0
  8 22  1  0
  9 12  1  0
 10 11  1  0
M  END
$$$$
