93N_ref
     RDKit          3D

 53 55  0  0  1  0  0  0  0  0999 V2000
   13.8640   -7.1990   19.2400 N   0  0  0  0  0  0  0  0  0  0  0  0
   12.5930   -7.2640   18.7550 C   0  0  0  0  0  0  0  0  0  0  0  0
   11.6090   -6.3900   19.2190 C   0  0  0  0  0  0  0  0  0  0  0  0
   11.9430   -5.4270   20.1680 C   0  0  0  0  0  0  0  0  0  0  0  0
   13.2450   -5.3480   20.6530 C   0  0  0  0  0  0  0  0  0  0  0  0
   14.1710   -6.2530   20.1620 C   0  0  0  0  0  0  0  0  0  0  0  0
   12.3700   -8.3430   17.7690 C   0  0  0  0  0  0  0  0  0  0  0  0
   11.0940   -8.8740   17.5040 C   0  0  0  0  0  0  0  0  0  0  0  0
   10.8970   -9.9270   16.5680 C   0  0  0  0  0  0  0  0  0  0  0  0
   12.0200  -10.4760   15.9010 C   0  0  0  0  0  0  0  0  0  0  0  0
   13.2860   -9.9520   16.1630 C   0  0  0  0  0  0  0  0  0  0  0  0
   13.4550   -8.9170   17.0830 C   0  0  0  0  0  0  0  0  0  0  0  0
   11.8140  -11.4920   14.9990 O   0  0  0  0  0  0  0  0  0  0  0  0
   12.5470  -12.7070   15.1630 C   0  0  0  0  0  0  0  0  0  0  0  0
   12.6280  -13.5050   13.8570 C   0  0  0  0  0  0  0  0  0  0  0  0
   11.3880  -14.3550   13.6390 C   0  0  0  0  0  0  0  0  0  0  0  0
   10.1150  -13.5530   13.5180 N   0  0  0  0  0  0  0  0  0  0  0  0
   15.5390   -6.2530   20.5720 C   0  0  0  0  0  0  0  0  0  0  0  0
   16.6710   -6.3080   20.8050 N   0  0  0  0  0  0  0  0  0  0  0  0
    9.4860  -10.4410   16.3460 C   0  0  0  0  0  0  0  0  0  0  0  0
    9.0570  -10.5110   15.0610 F   0  0  0  0  0  0  0  0  0  0  0  0
    8.5270   -9.7050   16.9540 F   0  0  0  0  0  0  0  0  0  0  0  0
    9.2970  -11.6840   16.8350 F   0  0  0  0  0  0  0  0  0  0  0  0
    7.6240  -13.5260   13.3980 C   0  0  0  0  0  0  0  0  0  0  0  0
    7.7210  -12.6770   12.1360 N   0  0  0  0  0  0  0  0  0  0  0  0
    8.8790  -11.7250   12.3510 C   0  0  0  0  0  0  0  0  0  0  0  0
   10.1760  -12.5410   12.3890 C   0  0  0  0  0  0  0  0  0  0  0  0
    8.8730  -14.4160   13.4870 C   0  0  0  0  0  0  0  0  0  0  0  0
    6.4260  -11.9730   11.7730 C   0  0  0  0  0  0  0  0  0  0  0  0
   10.6057   -6.4320   18.8323 H   0  0  0  0  0  0  0  0  0  0  0  0
   11.1977   -4.7289   20.5181 H   0  0  0  0  0  0  0  0  0  0  0  0
   13.5158   -4.5948   21.3796 H   0  0  0  0  0  0  0  0  0  0  0  0
   10.2425   -8.4711   18.0311 H   0  0  0  0  0  0  0  0  0  0  0  0
   14.1521  -10.3411   15.6490 H   0  0  0  0  0  0  0  0  0  0  0  0
   14.4593   -8.5665   17.2464 H   0  0  0  0  0  0  0  0  0  0  0  0
   12.0988  -13.2980   15.9636 H   0  0  0  0  0  0  0  0  0  0  0  0
   13.5689  -12.5005   15.4819 H   0  0  0  0  0  0  0  0  0  0  0  0
   13.4483  -14.2133   13.9409 H   0  0  0  0  0  0  0  0  0  0  0  0
   12.8338  -12.9020   12.9852 H   0  0  0  0  0  0  0  0  0  0  0  0
   11.2778  -15.0404   14.4811 H   0  0  0  0  0  0  0  0  0  0  0  0
   11.5112  -14.9702   12.7464 H   0  0  0  0  0  0  0  0  0  0  0  0
    6.7246  -14.1350   13.2957 H   0  0  0  0  0  0  0  0  0  0  0  0
    7.5011  -12.8696   14.2629 H   0  0  0  0  0  0  0  0  0  0  0  0
    7.9504  -13.2946   11.3691 H   0  0  0  0  0  0  0  0  0  0  0  0
    8.5886  -11.2020   13.2187 H   0  0  0  0  0  0  0  0  0  0  0  0
    8.8468  -10.9463   11.5996 H   0  0  0  0  0  0  0  0  0  0  0  0
   10.3551  -13.0728   11.4598 H   0  0  0  0  0  0  0  0  0  0  0  0
   11.0052  -11.8493   12.5323 H   0  0  0  0  0  0  0  0  0  0  0  0
    8.8318  -15.0181   14.3957 H   0  0  0  0  0  0  0  0  0  0  0  0
    8.9166  -15.1099   12.6466 H   0  0  0  0  0  0  0  0  0  0  0  0
    6.5525  -11.5795   10.7670 H   0  0  0  0  0  0  0  0  0  0  0  0
    5.6288  -12.7173   11.7837 H   0  0  0  0  0  0  0  0  0  0  0  0
    6.2542  -11.1945   12.5067 H   0  0  0  0  0  0  0  0  0  0  0  0
  1  2  2  0
  1  6  1  0
  2  3  1  0
  2  7  1  0
  3  4  2  0
  3 30  1  0
  4  5  1  0
  4 31  1  0
  5  6  2  0
  5 32  1  0
  6 18  1  0
  7  8  2  0
  7 12  1  0
  8  9  1  0
  8 33  1  0
  9 10  2  0
  9 20  1  0
 10 11  1  0
 10 13  1  0
 11 12  2  0
 11 34  1  0
 12 35  1  0
 13 14  1  0
 14 15  1  0
 14 36  1  0
 14 37  1  0
 15 16  1  0
 15 38  1  0
 15 39  1  0
 16 17  1  0
 16 40  1  0
 16 41  1  0
 17 27  1  0
 17 28  1  0
 18 19  3  0
 20 21  1  0
 20 22  1  0
 20 23  1  0
 24 25  1  0
 24 28  1  0
 24 42  1  0
 24 43  1  0
 25 26  1  0
 25 29  1  0
 25 44  1  0
 26 27  1  0
 26 45  1  0
 26 46  1  0
 27 47  1  0
 27 48  1  0
 28 49  1  0
 28 50  1  0
 29 51  1  0
 29 52  1  0
 29 53  1  0
M  CHG  1  25   1
M  END
$$$$
