3SP_ref
     RDKit          3D

 66 68  0  0  1  0  0  0  0  0999 V2000
   17.5080   19.6480   22.6620 C   0  0  0  0  0  0  0  0  0  0  0  0
   16.6170   20.3080   23.1680 O   0  0  0  0  0  0  0  0  0  0  0  0
   17.7870   18.2500   23.1910 C   0  0  1  0  0  0  0  0  0  0  0  0
   18.3360   18.3100   24.6380 C   0  0  0  0  0  0  0  0  0  0  0  0
   19.7330   18.9520   24.6680 C   0  0  0  0  0  0  0  0  0  0  0  0
   20.0560   19.4310   26.0940 C   0  0  0  0  0  0  0  0  0  0  0  0
   21.4420   20.1250   26.1110 C   0  0  0  0  0  0  0  0  0  0  0  0
   22.5430   19.1530   25.6190 C   0  0  0  0  0  0  0  0  0  0  0  0
   22.2030   18.6110   24.2080 C   0  0  0  0  0  0  0  0  0  0  0  0
   20.8070   17.9330   24.2120 C   0  0  0  0  0  0  0  0  0  0  0  0
   16.5380   17.4770   23.1680 N   0  0  0  0  0  0  0  0  0  0  0  0
   15.9690   17.0420   21.8790 C   0  0  0  0  0  0  0  0  0  0  0  0
   14.5150   16.6700   22.0490 C   0  0  0  0  0  0  0  0  0  0  0  0
   14.0980   16.3020   23.1370 O   0  0  0  0  0  0  0  0  0  0  0  0
   13.7530   16.7330   21.0900 O   0  0  0  0  0  0  0  0  0  0  0  0
   18.2390   20.1610   21.6210 N   0  0  0  0  0  0  0  0  0  0  0  0
   18.0490   21.5090   21.0050 C   0  0  2  0  0  0  0  0  0  0  0  0
   16.6420   21.6020   20.4500 C   0  0  0  0  0  0  0  0  0  0  0  0
   16.2130   20.6880   19.7550 O   0  0  0  0  0  0  0  0  0  0  0  0
   19.0900   21.6240   19.8540 C   0  0  0  0  0  0  0  0  0  0  0  0
   20.1650   20.5760   20.2440 C   0  0  0  0  0  0  0  0  0  0  0  0
   19.3350   19.4790   20.9150 C   0  0  0  0  0  0  0  0  0  0  0  0
   11.9870   22.1830   23.0070 C   0  0  0  0  0  0  0  0  0  0  0  0
   12.3400   20.9380   22.4630 C   0  0  0  0  0  0  0  0  0  0  0  0
   13.2930   21.0600   21.4330 C   0  0  0  0  0  0  0  0  0  0  0  0
   13.6540   22.4010   21.2050 C   0  0  0  0  0  0  0  0  0  0  0  0
   12.8240   23.4510   22.2520 S   0  0  0  0  0  0  0  0  0  0  0  0
   11.0020   22.3810   24.0950 C   0  0  0  0  0  0  0  0  0  0  0  0
   10.3540   21.3350   24.6170 N   0  0  0  0  0  0  0  0  0  0  0  0
   10.7540   23.6110   24.5520 N   0  0  0  0  0  0  0  0  0  0  0  0
   14.5280   22.8060   20.2700 C   0  0  0  0  0  0  0  0  0  0  0  0
   15.8550   22.6880   20.7500 N   0  0  0  0  0  0  0  0  0  0  0  0
   18.4517   17.6674   22.5556 H   0  0  0  0  0  0  0  0  0  0  0  0
   18.3860   17.3150   25.0819 H   0  0  0  0  0  0  0  0  0  0  0  0
   17.6477   18.8695   25.2756 H   0  0  0  0  0  0  0  0  0  0  0  0
   19.7848   19.8296   24.0219 H   0  0  0  0  0  0  0  0  0  0  0  0
   20.0238   18.5975   26.7970 H   0  0  0  0  0  0  0  0  0  0  0  0
   19.2955   20.1227   26.4354 H   0  0  0  0  0  0  0  0  0  0  0  0
   21.6594   20.4568   27.1243 H   0  0  0  0  0  0  0  0  0  0  0  0
   21.4125   21.0238   25.4982 H   0  0  0  0  0  0  0  0  0  0  0  0
   22.6528   18.3264   26.3228 H   0  0  0  0  0  0  0  0  0  0  0  0
   23.5057   19.6655   25.5952 H   0  0  0  0  0  0  0  0  0  0  0  0
   22.9596   17.8904   23.8981 H   0  0  0  0  0  0  0  0  0  0  0  0
   22.2271   19.4230   23.4791 H   0  0  0  0  0  0  0  0  0  0  0  0
   20.5856   17.5252   23.2276 H   0  0  0  0  0  0  0  0  0  0  0  0
   20.8038   17.0607   24.8681 H   0  0  0  0  0  0  0  0  0  0  0  0
   15.8542   17.9951   23.7096 H   0  0  0  0  0  0  0  0  0  0  0  0
   16.7824   16.6256   23.6674 H   0  0  0  0  0  0  0  0  0  0  0  0
   16.5389   16.1514   21.6123 H   0  0  0  0  0  0  0  0  0  0  0  0
   16.1210   17.8393   21.1492 H   0  0  0  0  0  0  0  0  0  0  0  0
   18.2261   22.2733   21.7627 H   0  0  0  0  0  0  0  0  0  0  0  0
   19.5292   22.6147   19.8080 H   0  0  0  0  0  0  0  0  0  0  0  0
   18.6669   21.3809   18.8774 H   0  0  0  0  0  0  0  0  0  0  0  0
   20.8550   21.0092   20.9699 H   0  0  0  0  0  0  0  0  0  0  0  0
   20.7428   20.2227   19.3912 H   0  0  0  0  0  0  0  0  0  0  0  0
   18.9013   18.8039   20.1821 H   0  0  0  0  0  0  0  0  0  0  0  0
   19.9787   18.8982   21.5708 H   0  0  0  0  0  0  0  0  0  0  0  0
   11.9461   19.9861   22.7779 H   0  0  0  0  0  0  0  0  0  0  0  0
   13.6940   20.2194   20.8845 H   0  0  0  0  0  0  0  0  0  0  0  0
    9.5207   21.4998   25.1823 H   0  0  0  0  0  0  0  0  0  0  0  0
   10.5430   20.3993   24.2820 H   0  0  0  0  0  0  0  0  0  0  0  0
    9.9412   23.7527   25.1427 H   0  0  0  0  0  0  0  0  0  0  0  0
   11.3216   24.3970   24.2605 H   0  0  0  0  0  0  0  0  0  0  0  0
   14.3651   23.8639   20.0708 H   0  0  0  0  0  0  0  0  0  0  0  0
   14.3678   22.3221   19.3027 H   0  0  0  0  0  0  0  0  0  0  0  0
   16.2260   23.4414   21.3166 H   0  0  0  0  0  0  0  0  0  0  0  0
  1  2  2  0
  1  3  1  0
  1 16  1  0
  3  4  1  0
  3 11  1  0
  3 33  1  6
  4  5  1  0
  4 34  1  0
  4 35  1  0
  5  6  1  0
  5 10  1  0
  5 36  1  0
  6  7  1  0
  6 37  1  0
  6 38  1  0
  7  8  1  0
  7 39  1  0
  7 40  1  0
  8  9  1  0
  8 41  1  0
  8 42  1  0
  9 10  1  0
  9 43  1  0
  9 44  1  0
 10 45  1  0
 10 46  1  0
 11 12  1  0
 11 47  1  0
 11 48  1  0
 12 13  1  0
 12 49  1  0
 12 50  1  0
 13 14  1  0
 13 15  2  0
 16 17  1  0
 16 22  1  0
 17 18  1  0
 17 20  1  0
 17 51  1  1
 18 19  2  0
 18 32  1  0
 20 21  1  0
 20 52  1  0
 20 53  1  0
 21 22  1  0
 21 54  1  0
 21 55  1  0
 22 56  1  0
 22 57  1  0
 23 24  2  0
 23 27  1  0
 23 28  1  0
 24 25  1  0
 24 58  1  0
 25 26  2  0
 25 59  1  0
 26 27  1  0
 26 31  1  0
 28 29  2  0
 28 30  1  0
 29 60  1  0
 29 61  1  0
 30 62  1  0
 30 63  1  0
 31 32  1  0
 31 64  1  0
 31 65  1  0
 32 66  1  0
M  CHG  3  11   1  14  -1  29   1
M  END
$$$$
