DXV_ref
     RDKit          3D

 50 54  0  0  1  0  0  0  0  0999 V2000
  -41.6550    2.1730  -12.3730 C   0  0  0  0  0  0  0  0  0  0  0  0
  -37.3320    2.6070   -9.6160 C   0  0  0  0  0  0  0  0  0  0  0  0
  -41.5870    3.6410  -12.3420 C   0  0  0  0  0  0  0  0  0  0  0  0
  -38.7850    2.5420  -13.8680 C   0  0  0  0  0  0  0  0  0  0  0  0
  -36.5520    2.7830  -10.8250 C   0  0  0  0  0  0  0  0  0  0  0  0
  -38.3300    2.7670  -12.5700 C   0  0  0  0  0  0  0  0  0  0  0  0
  -37.8730    2.0930  -14.8480 C   0  0  0  0  0  0  0  0  0  0  0  0
  -36.9990    2.5580  -12.2150 C   0  0  0  0  0  0  0  0  0  0  0  0
  -36.5330    1.8860  -14.4850 C   0  0  0  0  0  0  0  0  0  0  0  0
  -36.1100    2.1090  -13.1850 C   0  0  0  0  0  0  0  0  0  0  0  0
  -38.2650    1.8260  -16.2730 C   0  0  0  0  0  0  0  0  0  0  0  0
  -35.2640    3.2830   -9.0350 N   0  0  0  0  0  0  0  0  0  0  0  0
  -36.8130    2.9080   -7.2340 N   0  0  0  0  0  0  0  0  0  0  0  0
  -41.2310    1.7600  -13.7710 C   0  0  0  0  0  0  0  0  0  0  0  0
  -39.2910    1.1540  -16.4940 O   0  0  0  0  0  0  0  0  0  0  0  0
  -37.5230    2.2720  -17.1610 O   0  0  0  0  0  0  0  0  0  0  0  0
  -40.2390    2.8170  -14.1990 C   0  0  0  0  0  0  0  0  0  0  0  0
  -40.8480    4.0840  -13.6020 C   0  0  0  0  0  0  0  0  0  0  0  0
  -35.3130    3.1920  -10.4090 C   0  0  0  0  0  0  0  0  0  0  0  0
  -36.4790    2.9380   -8.5320 C   0  0  0  0  0  0  0  0  0  0  0  0
  -38.6300    2.2220   -9.2950 C   0  0  0  0  0  0  0  0  0  0  0  0
  -39.0150    2.1720   -7.9520 C   0  0  0  0  0  0  0  0  0  0  0  0
  -38.0570    2.5380   -6.9620 C   0  0  0  0  0  0  0  0  0  0  0  0
  -40.4080    1.7770   -7.5690 C   0  0  0  0  0  0  0  0  0  0  0  0
  -41.4570    1.8010   -8.4930 C   0  0  0  0  0  0  0  0  0  0  0  0
  -40.7300    1.4100   -6.2600 C   0  0  0  0  0  0  0  0  0  0  0  0
  -42.7570    1.4730   -8.1310 C   0  0  0  0  0  0  0  0  0  0  0  0
  -42.0320    1.0780   -5.9040 C   0  0  0  0  0  0  0  0  0  0  0  0
  -43.0460    1.1250   -6.8330 C   0  0  0  0  0  0  0  0  0  0  0  0
  -42.6497    1.7990  -12.1258 H   0  0  0  0  0  0  0  0  0  0  0  0
  -40.9635    1.7348  -11.6554 H   0  0  0  0  0  0  0  0  0  0  0  0
  -41.0796    3.9883  -11.4436 H   0  0  0  0  0  0  0  0  0  0  0  0
  -42.5868    4.0786  -12.3189 H   0  0  0  0  0  0  0  0  0  0  0  0
  -39.0101    3.1464  -11.8281 H   0  0  0  0  0  0  0  0  0  0  0  0
  -35.8069    1.5367  -15.2060 H   0  0  0  0  0  0  0  0  0  0  0  0
  -35.0773    1.9329  -12.9301 H   0  0  0  0  0  0  0  0  0  0  0  0
  -34.4379    3.5649   -8.5240 H   0  0  0  0  0  0  0  0  0  0  0  0
  -42.0879    1.7803  -14.4322 H   0  0  0  0  0  0  0  0  0  0  0  0
  -40.8394    0.7462  -13.8454 H   0  0  0  0  0  0  0  0  0  0  0  0
  -40.3051    2.9898  -15.2667 H   0  0  0  0  0  0  0  0  0  0  0  0
  -40.1228    4.8853  -13.4538 H   0  0  0  0  0  0  0  0  0  0  0  0
  -41.5715    4.4985  -14.3051 H   0  0  0  0  0  0  0  0  0  0  0  0
  -34.4368    3.4442  -10.9881 H   0  0  0  0  0  0  0  0  0  0  0  0
  -39.3017    1.9240  -10.0802 H   0  0  0  0  0  0  0  0  0  0  0  0
  -38.2999    2.5293   -5.9142 H   0  0  0  0  0  0  0  0  0  0  0  0
  -41.2995    2.1118   -9.5101 H   0  0  0  0  0  0  0  0  0  0  0  0
  -39.9790    1.3582   -5.4874 H   0  0  0  0  0  0  0  0  0  0  0  0
  -43.5480    1.5112   -8.8655 H   0  0  0  0  0  0  0  0  0  0  0  0
  -42.2514    0.7947   -4.8848 H   0  0  0  0  0  0  0  0  0  0  0  0
  -44.0580    0.8774   -6.5482 H   0  0  0  0  0  0  0  0  0  0  0  0
  1  3  1  0
  1 14  1  0
  1 30  1  0
  1 31  1  0
  2  5  1  0
  2 20  2  0
  2 21  1  0
  3 18  1  0
  3 32  1  0
  3 33  1  0
  4  6  2  0
  4  7  1  0
  4 17  1  0
  5  8  1  0
  5 19  2  0
  6  8  1  0
  6 34  1  0
  7  9  2  0
  7 11  1  0
  8 10  2  0
  9 10  1  0
  9 35  1  0
 10 36  1  0
 11 15  2  0
 11 16  1  0
 12 19  1  0
 12 20  1  0
 12 37  1  0
 13 20  1  0
 13 23  2  0
 14 17  1  0
 14 38  1  0
 14 39  1  0
 17 18  1  0
 17 40  1  0
 18 41  1  0
 18 42  1  0
 19 43  1  0
 21 22  2  0
 21 44  1  0
 22 23  1  0
 22 24  1  0
 23 45  1  0
 24 25  2  0
 24 26  1  0
 25 27  1  0
 25 46  1  0
 26 28  2  0
 26 47  1  0
 27 29  2  0
 27 48  1  0
 28 29  1  0
 28 49  1  0
 29 50  1  0
M  CHG  1  16  -1
M  END
$$$$
