YD8_ref
     RDKit          3D

 52 55  0  0  1  0  0  0  0  0999 V2000
   28.4610   30.7240   41.9080 C   0  0  0  0  0  0  0  0  0  0  0  0
   32.4240   30.2050   43.0710 C   0  0  0  0  0  0  0  0  0  0  0  0
   31.0800   30.9280   43.2210 C   0  0  0  0  0  0  0  0  0  0  0  0
   34.7340   30.8970   42.9140 C   0  0  0  0  0  0  0  0  0  0  0  0
   25.1710   30.5820   40.6560 C   0  0  0  0  0  0  0  0  0  0  0  0
   23.7900   30.0250   40.6730 C   0  0  0  0  0  0  0  0  0  0  0  0
   22.5970   30.5730   39.9850 C   0  0  0  0  0  0  0  0  0  0  0  0
   21.5990   29.5340   40.4050 C   0  0  0  0  0  0  0  0  0  0  0  0
   27.1910   30.7700   41.3340 C   0  0  0  0  0  0  0  0  0  0  0  0
   22.2780   28.5600   41.2950 C   0  0  0  0  0  0  0  0  0  0  0  0
   21.6550   27.3640   41.9560 C   0  0  0  0  0  0  0  0  0  0  0  0
   20.1380   29.4650   40.1500 C   0  0  0  0  0  0  0  0  0  0  0  0
   19.4730   30.8090   40.1470 C   0  0  0  0  0  0  0  0  0  0  0  0
   22.5190   31.8060   39.1020 C   0  0  0  0  0  0  0  0  0  0  0  0
   26.8920   31.7150   40.2320 C   0  0  0  0  0  0  0  0  0  0  0  0
   27.9140   32.5370   39.8110 C   0  0  0  0  0  0  0  0  0  0  0  0
   29.1640   32.4690   40.4130 C   0  0  0  0  0  0  0  0  0  0  0  0
   29.4520   31.5810   41.4420 C   0  0  0  0  0  0  0  0  0  0  0  0
   31.7670   32.3020   41.1770 C   0  0  0  0  0  0  0  0  0  0  0  0
   33.0440   32.3080   42.0040 C   0  0  0  0  0  0  0  0  0  0  0  0
   33.4280   30.9120   42.2450 N   0  0  0  0  0  0  0  0  0  0  0  0
   25.6090   31.5590   39.8560 N   0  0  0  0  0  0  0  0  0  0  0  0
   26.0490   30.0950   41.5590 N   0  0  0  0  0  0  0  0  0  0  0  0
   23.5730   28.9080   41.3810 N   0  0  0  0  0  0  0  0  0  0  0  0
   30.7550   31.5910   41.9570 N   0  0  0  0  0  0  0  0  0  0  0  0
   19.4990   28.4390   40.0690 O   0  0  0  0  0  0  0  0  0  0  0  0
   28.6683   29.9984   42.6470 H   0  0  0  0  0  0  0  0  0  0  0  0
   32.2816   29.2736   42.5222 H   0  0  0  0  0  0  0  0  0  0  0  0
   32.8288   29.9647   44.0573 H   0  0  0  0  0  0  0  0  0  0  0  0
   31.1411   31.6841   44.0049 H   0  0  0  0  0  0  0  0  0  0  0  0
   30.3509   30.2118   43.5717 H   0  0  0  0  0  0  0  0  0  0  0  0
   35.4622   31.3654   42.2491 H   0  0  0  0  0  0  0  0  0  0  0  0
   34.6664   31.4299   43.8658 H   0  0  0  0  0  0  0  0  0  0  0  0
   35.0068   29.8510   43.0695 H   0  0  0  0  0  0  0  0  0  0  0  0
   22.4010   26.7133   42.4121 H   0  0  0  0  0  0  0  0  0  0  0  0
   20.9671   27.6605   42.7475 H   0  0  0  0  0  0  0  0  0  0  0  0
   21.0975   26.7484   41.2512 H   0  0  0  0  0  0  0  0  0  0  0  0
   18.4662   30.7211   40.5449 H   0  0  0  0  0  0  0  0  0  0  0  0
   20.0073   31.5178   40.7800 H   0  0  0  0  0  0  0  0  0  0  0  0
   19.4156   31.2073   39.1343 H   0  0  0  0  0  0  0  0  0  0  0  0
   21.5857   31.8709   38.5444 H   0  0  0  0  0  0  0  0  0  0  0  0
   22.6560   32.7223   39.6720 H   0  0  0  0  0  0  0  0  0  0  0  0
   23.3178   31.8050   38.3613 H   0  0  0  0  0  0  0  0  0  0  0  0
   27.7448   33.2411   39.0093 H   0  0  0  0  0  0  0  0  0  0  0  0
   29.8700   33.1632   39.9916 H   0  0  0  0  0  0  0  0  0  0  0  0
   31.9464   31.8228   40.2122 H   0  0  0  0  0  0  0  0  0  0  0  0
   31.5294   33.3594   41.0606 H   0  0  0  0  0  0  0  0  0  0  0  0
   32.9469   32.8348   42.9579 H   0  0  0  0  0  0  0  0  0  0  0  0
   33.8500   32.7736   41.4325 H   0  0  0  0  0  0  0  0  0  0  0  0
   33.5055   30.4380   41.3552 H   0  0  0  0  0  0  0  0  0  0  0  0
   25.8306   29.4068   42.2684 H   0  0  0  0  0  0  0  0  0  0  0  0
   24.2726   28.3994   41.9073 H   0  0  0  0  0  0  0  0  0  0  0  0
  1  9  2  0
  1 18  1  0
  1 27  1  0
  2  3  1  0
  2 21  1  0
  2 28  1  0
  2 29  1  0
  3 25  1  0
  3 30  1  0
  3 31  1  0
  4 21  1  0
  4 32  1  0
  4 33  1  0
  4 34  1  0
  5  6  1  0
  5 22  2  0
  5 23  1  0
  6  7  2  0
  6 24  1  0
  7  8  1  0
  7 14  1  0
  8 10  2  0
  8 12  1  0
  9 15  1  0
  9 23  1  0
 10 11  1  0
 10 24  1  0
 11 35  1  0
 11 36  1  0
 11 37  1  0
 12 13  1  0
 12 26  2  0
 13 38  1  0
 13 39  1  0
 13 40  1  0
 14 41  1  0
 14 42  1  0
 14 43  1  0
 15 16  2  0
 15 22  1  0
 16 17  1  0
 16 44  1  0
 17 18  2  0
 17 45  1  0
 18 25  1  0
 19 20  1  0
 19 25  1  0
 19 46  1  0
 19 47  1  0
 20 21  1  0
 20 48  1  0
 20 49  1  0
 21 50  1  0
 23 51  1  0
 24 52  1  0
M  CHG  1  21   1
M  END
$$$$
