7Z9_ref
     RDKit          3D

 32 34  0  0  1  0  0  0  0  0999 V2000
   14.3750   44.0150   10.6250 C   0  0  0  0  0  0  0  0  0  0  0  0
   12.8320   45.8560   10.6290 C   0  0  0  0  0  0  0  0  0  0  0  0
   15.0470   44.5970    9.5600 C   0  0  0  0  0  0  0  0  0  0  0  0
   14.5480   45.7690    9.0480 C   0  0  0  0  0  0  0  0  0  0  0  0
   12.0980   40.9130   11.0080 C   0  0  0  0  0  0  0  0  0  0  0  0
   13.2160   44.6830   11.1940 C   0  0  0  0  0  0  0  0  0  0  0  0
   15.4650   43.0970   14.1050 C   0  0  0  0  0  0  0  0  0  0  0  0
   14.1480   42.3740   13.8960 C   0  0  0  0  0  0  0  0  0  0  0  0
   13.8150   41.9930   12.5980 C   0  0  0  0  0  0  0  0  0  0  0  0
   12.5500   41.3480   12.3930 C   0  0  0  0  0  0  0  0  0  0  0  0
   11.7390   41.1160   13.4310 C   0  0  0  0  0  0  0  0  0  0  0  0
   12.1290   41.4500   14.7760 C   0  0  0  0  0  0  0  0  0  0  0  0
   13.3310   42.0770   14.9650 C   0  0  0  0  0  0  0  0  0  0  0  0
   10.4940   40.4420   13.2540 N   0  0  0  0  0  0  0  0  0  0  0  0
   10.0930   40.1080   11.9570 C   0  0  0  0  0  0  0  0  0  0  0  0
   10.9100   40.3500   10.8410 N   0  0  0  0  0  0  0  0  0  0  0  0
   12.7520   41.0830   10.0420 O   0  0  0  0  0  0  0  0  0  0  0  0
    8.9010   39.4960   11.6970 N   0  0  0  0  0  0  0  0  0  0  0  0
   14.9710   42.4420   11.2930 S   0  0  0  0  0  0  0  0  0  0  0  0
   13.5100   46.3790    9.6000 N   0  0  0  0  0  0  0  0  0  0  0  0
   11.9850   46.4125   11.0031 H   0  0  0  0  0  0  0  0  0  0  0  0
   15.9038   44.1136    9.1247 H   0  0  0  0  0  0  0  0  0  0  0  0
   15.0184   46.2552    8.2071 H   0  0  0  0  0  0  0  0  0  0  0  0
   12.6703   44.2765   12.0308 H   0  0  0  0  0  0  0  0  0  0  0  0
   15.5189   43.5142   15.1080 H   0  0  0  0  0  0  0  0  0  0  0  0
   16.3135   42.4294   13.9519 H   0  0  0  0  0  0  0  0  0  0  0  0
   15.5745   43.9539   13.4413 H   0  0  0  0  0  0  0  0  0  0  0  0
   11.4905   41.2248   15.6097 H   0  0  0  0  0  0  0  0  0  0  0  0
   13.6210   42.3654   15.9630 H   0  0  0  0  0  0  0  0  0  0  0  0
   10.6097   40.1045    9.9019 H   0  0  0  0  0  0  0  0  0  0  0  0
    8.4883   39.6251   10.7843 H   0  0  0  0  0  0  0  0  0  0  0  0
    8.2026   39.4844   12.4285 H   0  0  0  0  0  0  0  0  0  0  0  0
  1  3  2  0
  1  6  1  0
  1 19  1  0
  2  6  2  0
  2 20  1  0
  2 21  1  0
  3  4  1  0
  3 22  1  0
  4 20  2  0
  4 23  1  0
  5 10  1  0
  5 16  1  0
  5 17  2  0
  6 24  1  0
  7  8  1  0
  7 25  1  0
  7 26  1  0
  7 27  1  0
  8  9  1  0
  8 13  2  0
  9 10  2  0
  9 19  1  0
 10 11  1  0
 11 12  2  0
 11 14  1  0
 12 13  1  0
 12 28  1  0
 13 29  1  0
 14 15  2  0
 15 16  1  0
 15 18  1  0
 16 30  1  0
 18 31  1  0
 18 32  1  0
M  END
$$$$
