5C5_ref
     RDKit          3D

 55 58  0  0  1  0  0  0  0  0999 V2000
   41.1710   -8.6270   54.6280 O   0  0  0  0  0  0  0  0  0  0  0  0
   41.6460   -9.1440   55.6380 C   0  0  0  0  0  0  0  0  0  0  0  0
   40.9430   -9.1560   56.7580 O   0  0  0  0  0  0  0  0  0  0  0  0
   43.0090   -9.7850   55.6170 C   0  0  1  0  0  0  0  0  0  0  0  0
   43.4910   -9.8090   54.2280 N   0  0  0  0  0  0  0  0  0  0  0  0
   43.9990   -9.0220   56.4940 C   0  0  0  0  0  0  0  0  0  0  0  0
   45.4230   -9.9810   56.9790 S   0  0  0  0  0  0  0  0  0  0  0  0
   46.4740   -9.0730   58.0990 C   0  0  0  0  0  0  0  0  0  0  0  0
   46.4450   -7.7140   57.4140 C   0  0  0  0  0  0  0  0  0  0  0  0
   47.3400   -7.4500   56.3480 C   0  0  0  0  0  0  0  0  0  0  0  0
   47.2930   -6.2540   55.6420 C   0  0  0  0  0  0  0  0  0  0  0  0
   46.3350   -5.3110   55.9880 C   0  0  0  0  0  0  0  0  0  0  0  0
   46.3080   -4.1360   55.3010 O   0  0  0  0  0  0  0  0  0  0  0  0
   45.0900   -3.4400   55.0980 C   0  0  0  0  0  0  0  0  0  0  0  0
   45.4230   -5.5650   57.0270 C   0  0  0  0  0  0  0  0  0  0  0  0
   45.4730   -6.7590   57.7320 C   0  0  0  0  0  0  0  0  0  0  0  0
   45.9290   -9.2010   59.4830 C   0  0  0  0  0  0  0  0  0  0  0  0
   44.9620  -10.1590   59.7770 C   0  0  0  0  0  0  0  0  0  0  0  0
   44.4660  -10.3070   61.0750 C   0  0  0  0  0  0  0  0  0  0  0  0
   44.9400   -9.5220   62.1140 C   0  0  0  0  0  0  0  0  0  0  0  0
   45.9170   -8.5630   61.8750 C   0  0  0  0  0  0  0  0  0  0  0  0
   46.4550   -8.3790   60.6020 C   0  0  0  0  0  0  0  0  0  0  0  0
   47.5050   -7.2950   60.4310 C   0  0  0  0  0  0  0  0  0  0  0  0
   48.7610   -7.5980   59.6040 C   0  0  0  0  0  0  0  0  0  0  0  0
   48.9180   -8.9840   59.0380 C   0  0  0  0  0  0  0  0  0  0  0  0
   47.8460   -9.6850   58.2810 C   0  0  0  0  0  0  0  0  0  0  0  0
   50.1500   -9.6000   59.2020 C   0  0  0  0  0  0  0  0  0  0  0  0
   50.3990  -10.8650   58.6920 C   0  0  0  0  0  0  0  0  0  0  0  0
   49.3970  -11.5360   57.9980 C   0  0  0  0  0  0  0  0  0  0  0  0
   48.1390  -10.9640   57.8030 C   0  0  0  0  0  0  0  0  0  0  0  0
   42.9293  -10.8384   55.8906 H   0  0  0  0  0  0  0  0  0  0  0  0
   44.3828  -10.2841   54.1788 H   0  0  0  0  0  0  0  0  0  0  0  0
   42.8335  -10.3001   53.6395 H   0  0  0  0  0  0  0  0  0  0  0  0
   43.6058   -8.8634   53.8867 H   0  0  0  0  0  0  0  0  0  0  0  0
   43.5295   -8.7007   57.4257 H   0  0  0  0  0  0  0  0  0  0  0  0
   44.3064   -8.1240   55.9625 H   0  0  0  0  0  0  0  0  0  0  0  0
   48.0738   -8.1882   56.0581 H   0  0  0  0  0  0  0  0  0  0  0  0
   47.9879   -6.0616   54.8393 H   0  0  0  0  0  0  0  0  0  0  0  0
   45.1337   -2.8513   54.1836 H   0  0  0  0  0  0  0  0  0  0  0  0
   44.2122   -4.0836   55.0833 H   0  0  0  0  0  0  0  0  0  0  0  0
   44.9576   -2.7534   55.9315 H   0  0  0  0  0  0  0  0  0  0  0  0
   44.6824   -4.8302   57.3050 H   0  0  0  0  0  0  0  0  0  0  0  0
   44.7693   -6.9377   58.5307 H   0  0  0  0  0  0  0  0  0  0  0  0
   44.5312  -10.8630   59.0857 H   0  0  0  0  0  0  0  0  0  0  0  0
   43.7141  -11.0561   61.2755 H   0  0  0  0  0  0  0  0  0  0  0  0
   44.5487   -9.6528   63.1123 H   0  0  0  0  0  0  0  0  0  0  0  0
   46.2610   -7.9645   62.7040 H   0  0  0  0  0  0  0  0  0  0  0  0
   47.8188   -6.9280   61.4093 H   0  0  0  0  0  0  0  0  0  0  0  0
   46.9895   -6.4342   60.0106 H   0  0  0  0  0  0  0  0  0  0  0  0
   49.6358   -7.3264   60.1951 H   0  0  0  0  0  0  0  0  0  0  0  0
   48.8197   -6.9041   58.7650 H   0  0  0  0  0  0  0  0  0  0  0  0
   50.9436   -9.0851   59.7192 H   0  0  0  0  0  0  0  0  0  0  0  0
   51.3657  -11.3268   58.8312 H   0  0  0  0  0  0  0  0  0  0  0  0
   49.6001  -12.5243   57.6132 H   0  0  0  0  0  0  0  0  0  0  0  0
   47.4232  -11.5600   57.2652 H   0  0  0  0  0  0  0  0  0  0  0  0
  1  2  2  0
  2  3  1  0
  2  4  1  0
  4  5  1  0
  4  6  1  0
  4 31  1  1
  5 32  1  0
  5 33  1  0
  5 34  1  0
  6  7  1  0
  6 35  1  0
  6 36  1  0
  7  8  1  0
  8  9  1  0
  8 17  1  0
  8 26  1  0
  9 10  2  0
  9 16  1  0
 10 11  1  0
 10 37  1  0
 11 12  2  0
 11 38  1  0
 12 13  1  0
 12 15  1  0
 13 14  1  0
 14 39  1  0
 14 40  1  0
 14 41  1  0
 15 16  2  0
 15 42  1  0
 16 43  1  0
 17 18  2  0
 17 22  1  0
 18 19  1  0
 18 44  1  0
 19 20  2  0
 19 45  1  0
 20 21  1  0
 20 46  1  0
 21 22  2  0
 21 47  1  0
 22 23  1  0
 23 24  1  0
 23 48  1  0
 23 49  1  0
 24 25  1  0
 24 50  1  0
 24 51  1  0
 25 26  2  0
 25 27  1  0
 26 30  1  0
 27 28  2  0
 27 52  1  0
 28 29  1  0
 28 53  1  0
 29 30  2  0
 29 54  1  0
 30 55  1  0
M  CHG  2   3  -1   5   1
M  END
$$$$
