P37_ref
     RDKit          3D

 54 58  0  0  1  0  0  0  0  0999 V2000
    6.4920   28.1260   27.7220 N   0  0  0  0  0  0  0  0  0  0  0  0
    0.5130   35.5450   30.4480 N   0  0  0  0  0  0  0  0  0  0  0  0
    6.9060   27.6620   25.2640 C   0  0  0  0  0  0  0  0  0  0  0  0
    5.6570   30.0530   28.9690 C   0  0  0  0  0  0  0  0  0  0  0  0
   -2.4610   34.5920   30.4380 C   0  0  0  0  0  0  0  0  0  0  0  0
   -3.8100   34.8050   30.6760 C   0  0  0  0  0  0  0  0  0  0  0  0
   -4.2020   35.4450   31.8440 C   0  0  0  0  0  0  0  0  0  0  0  0
   -1.8860   35.6530   32.5400 C   0  0  0  0  0  0  0  0  0  0  0  0
    1.6630   33.7420   30.7530 C   0  0  0  0  0  0  0  0  0  0  0  0
    0.9630   31.3180   31.9650 C   0  0  0  0  0  0  0  0  0  0  0  0
    2.5960   32.7020   30.8220 C   0  0  0  0  0  0  0  0  0  0  0  0
    4.6880   31.0440   29.1200 C   0  0  0  0  0  0  0  0  0  0  0  0
    6.7110   29.9790   29.8880 C   0  0  0  0  0  0  0  0  0  0  0  0
    6.7840   30.8860   30.9500 C   0  0  0  0  0  0  0  0  0  0  0  0
    5.8910   32.8600   32.2680 C   0  0  0  0  0  0  0  0  0  0  0  0
    7.9510   26.8820   26.0600 C   0  0  0  0  0  0  0  0  0  0  0  0
    6.5590   27.1170   26.6520 C   0  0  0  0  0  0  0  0  0  0  0  0
    5.5550   29.0750   27.7750 C   0  0  0  0  0  0  0  0  0  0  0  0
    4.6630   29.2070   26.9340 O   0  0  0  0  0  0  0  0  0  0  0  0
    5.8010   31.8700   31.1010 C   0  0  0  0  0  0  0  0  0  0  0  0
    4.7510   31.9510   30.1820 C   0  0  0  0  0  0  0  0  0  0  0  0
    3.8140   32.8980   30.3040 N   0  0  0  0  0  0  0  0  0  0  0  0
    2.2430   31.4920   31.4330 C   0  0  0  0  0  0  0  0  0  0  0  0
    0.6590   30.2500   32.4970 O   0  0  0  0  0  0  0  0  0  0  0  0
    0.0180   32.3640   31.8920 N   0  0  0  0  0  0  0  0  0  0  0  0
   -1.3370   32.1420   32.4700 C   0  0  0  0  0  0  0  0  0  0  0  0
    0.3850   33.5870   31.2750 C   0  0  0  0  0  0  0  0  0  0  0  0
    1.7030   34.9740   30.2450 C   0  0  0  0  0  0  0  0  0  0  0  0
   -0.2240   34.7550   31.0490 N   0  0  0  0  0  0  0  0  0  0  0  0
   -1.4960   35.0110   31.3600 C   0  0  0  0  0  0  0  0  0  0  0  0
   -3.2470   35.8670   32.7750 C   0  0  0  0  0  0  0  0  0  0  0  0
   -5.5190   35.6400   32.0530 F   0  0  0  0  0  0  0  0  0  0  0  0
   -2.0930   33.9660   29.3010 F   0  0  0  0  0  0  0  0  0  0  0  0
    7.0350   27.9328   28.5541 H   0  0  0  0  0  0  0  0  0  0  0  0
    6.4307   27.1929   24.4036 H   0  0  0  0  0  0  0  0  0  0  0  0
    7.0296   28.7370   25.1307 H   0  0  0  0  0  0  0  0  0  0  0  0
   -4.5483   34.4750   29.9603 H   0  0  0  0  0  0  0  0  0  0  0  0
   -1.1555   35.9679   33.2699 H   0  0  0  0  0  0  0  0  0  0  0  0
    3.8703   31.1193   28.4155 H   0  0  0  0  0  0  0  0  0  0  0  0
    7.5136   29.2736   29.7799 H   0  0  0  0  0  0  0  0  0  0  0  0
    7.6090   30.8247   31.6430 H   0  0  0  0  0  0  0  0  0  0  0  0
    5.8913   33.8869   31.9088 H   0  0  0  0  0  0  0  0  0  0  0  0
    5.0339   32.7474   32.9330 H   0  0  0  0  0  0  0  0  0  0  0  0
    6.8008   32.7201   32.8495 H   0  0  0  0  0  0  0  0  0  0  0  0
    8.8008   27.4043   26.4707 H   0  0  0  0  0  0  0  0  0  0  0  0
    8.2358   25.9083   25.6645 H   0  0  0  0  0  0  0  0  0  0  0  0
    5.8688   26.2870   26.7415 H   0  0  0  0  0  0  0  0  0  0  0  0
    4.1503   33.8399   30.1499 H   0  0  0  0  0  0  0  0  0  0  0  0
    2.9387   30.6679   31.5093 H   0  0  0  0  0  0  0  0  0  0  0  0
   -1.5929   32.9533   33.1507 H   0  0  0  0  0  0  0  0  0  0  0  0
   -2.0822   32.1156   31.6750 H   0  0  0  0  0  0  0  0  0  0  0  0
   -1.4309   31.2157   33.0378 H   0  0  0  0  0  0  0  0  0  0  0  0
    2.5228   35.4529   29.7344 H   0  0  0  0  0  0  0  0  0  0  0  0
   -3.5643   36.3621   33.6809 H   0  0  0  0  0  0  0  0  0  0  0  0
  1 17  1  0
  1 18  1  0
  1 34  1  0
  2 28  2  0
  2 29  1  0
  3 16  1  0
  3 17  1  0
  3 35  1  0
  3 36  1  0
  4 12  2  0
  4 13  1  0
  4 18  1  0
  5  6  2  0
  5 30  1  0
  5 33  1  0
  6  7  1  0
  6 37  1  0
  7 31  2  0
  7 32  1  0
  8 30  2  0
  8 31  1  0
  8 38  1  0
  9 11  1  0
  9 27  2  0
  9 28  1  0
 10 23  1  0
 10 24  2  0
 10 25  1  0
 11 22  1  0
 11 23  2  0
 12 21  1  0
 12 39  1  0
 13 14  2  0
 13 40  1  0
 14 20  1  0
 14 41  1  0
 15 20  1  0
 15 42  1  0
 15 43  1  0
 15 44  1  0
 16 17  1  0
 16 45  1  0
 16 46  1  0
 17 47  1  0
 18 19  2  0
 20 21  2  0
 21 22  1  0
 22 48  1  0
 23 49  1  0
 25 26  1  0
 25 27  1  0
 26 50  1  0
 26 51  1  0
 26 52  1  0
 27 29  1  0
 28 53  1  0
 29 30  1  0
 31 54  1  0
M  END
$$$$
