FMM_ref
     RDKit          3D

 67 71  0  0  1  0  0  0  0  0999 V2000
   22.6040   34.4870   31.1410 C   0  0  0  0  0  0  0  0  0  0  0  0
   24.0360   33.4650   31.3500 S   0  0  0  0  0  0  0  0  0  0  0  0
   25.0530   34.2040   32.0670 O   0  0  0  0  0  0  0  0  0  0  0  0
   24.5430   33.0770   30.0530 O   0  0  0  0  0  0  0  0  0  0  0  0
   23.5870   31.9800   32.2910 C   0  0  0  0  0  0  0  0  0  0  0  0
   22.0610   31.8360   32.3240 C   0  0  0  0  0  0  0  0  0  0  0  0
   21.5690   32.1840   33.6650 N   0  0  0  0  0  0  0  0  0  0  0  0
   20.9140   31.0190   34.2650 C   0  0  0  0  0  0  0  0  0  0  0  0
   19.4160   31.2080   34.2230 C   0  0  0  0  0  0  0  0  0  0  0  0
   18.6740   30.9770   33.1210 C   0  0  0  0  0  0  0  0  0  0  0  0
   17.4450   31.2370   33.4210 C   0  0  0  0  0  0  0  0  0  0  0  0
   17.4090   31.6450   34.7310 C   0  0  0  0  0  0  0  0  0  0  0  0
   18.6550   31.6530   35.3630 O   0  0  0  0  0  0  0  0  0  0  0  0
   16.1760   32.0580   35.4070 C   0  0  0  0  0  0  0  0  0  0  0  0
   14.9580   31.9860   34.7350 C   0  0  0  0  0  0  0  0  0  0  0  0
   13.8070   32.4020   35.3590 C   0  0  0  0  0  0  0  0  0  0  0  0
   13.8490   32.8900   36.6640 C   0  0  0  0  0  0  0  0  0  0  0  0
   12.6830   33.3050   37.2760 N   0  0  0  0  0  0  0  0  0  0  0  0
   12.7080   33.7900   38.5680 C   0  0  0  0  0  0  0  0  0  0  0  0
   13.8990   33.8630   39.2600 N   0  0  0  0  0  0  0  0  0  0  0  0
   15.0770   33.4520   38.6680 C   0  0  0  0  0  0  0  0  0  0  0  0
   16.2820   33.5270   39.3660 N   0  0  0  0  0  0  0  0  0  0  0  0
   16.3320   33.8430   40.7350 C   0  0  0  0  0  0  0  0  0  0  0  0
   17.1180   34.9090   41.1780 C   0  0  0  0  0  0  0  0  0  0  0  0
   17.1640   35.2150   42.5350 C   0  0  0  0  0  0  0  0  0  0  0  0
   16.4280   34.4570   43.4380 C   0  0  0  0  0  0  0  0  0  0  0  0
   16.4460   34.7470   44.8280 O   0  0  0  0  0  0  0  0  0  0  0  0
   17.0650   36.0020   45.1430 C   0  0  0  0  0  0  0  0  0  0  0  0
   16.0850   37.1810   44.9840 C   0  0  0  0  0  0  0  0  0  0  0  0
   16.5190   38.4620   45.2460 C   0  0  0  0  0  0  0  0  0  0  0  0
   15.6530   39.5270   45.1020 C   0  0  0  0  0  0  0  0  0  0  0  0
   14.3540   39.3120   44.6930 C   0  0  0  0  0  0  0  0  0  0  0  0
   13.9160   38.0360   44.4290 C   0  0  0  0  0  0  0  0  0  0  0  0
   12.6790   37.8370   44.0350 F   0  0  0  0  0  0  0  0  0  0  0  0
   14.7720   36.9660   44.5730 C   0  0  0  0  0  0  0  0  0  0  0  0
   15.6650   33.4150   42.9990 C   0  0  0  0  0  0  0  0  0  0  0  0
   14.7840   32.5140   44.1280 Cl  0  0  0  0  0  0  0  0  0  0  0  0
   15.6070   33.0980   41.6600 C   0  0  0  0  0  0  0  0  0  0  0  0
   15.0530   32.9590   37.3490 C   0  0  0  0  0  0  0  0  0  0  0  0
   16.2200   32.5450   36.7310 C   0  0  0  0  0  0  0  0  0  0  0  0
   21.9043   34.3279   31.9379 H   0  0  0  0  0  0  0  0  0  0  0  0
   22.9690   35.4745   31.3973 H   0  0  0  0  0  0  0  0  0  0  0  0
   22.2568   34.6361   30.1458 H   0  0  0  0  0  0  0  0  0  0  0  0
   24.0757   32.0194   33.2661 H   0  0  0  0  0  0  0  0  0  0  0  0
   24.0387   31.1468   31.7513 H   0  0  0  0  0  0  0  0  0  0  0  0
   21.8049   30.8091   32.0546 H   0  0  0  0  0  0  0  0  0  0  0  0
   21.4316   32.4093   31.6870 H   0  0  0  0  0  0  0  0  0  0  0  0
   20.9305   32.9669   33.6336 H   0  0  0  0  0  0  0  0  0  0  0  0
   22.3626   32.4471   34.2321 H   0  0  0  0  0  0  0  0  0  0  0  0
   21.2587   31.0801   35.2981 H   0  0  0  0  0  0  0  0  0  0  0  0
   21.2876   30.0638   33.8900 H   0  0  0  0  0  0  0  0  0  0  0  0
   19.0371   30.6402   32.1602 H   0  0  0  0  0  0  0  0  0  0  0  0
   16.6256   31.1502   32.7248 H   0  0  0  0  0  0  0  0  0  0  0  0
   14.8673   31.5768   33.7437 H   0  0  0  0  0  0  0  0  0  0  0  0
   12.8637   32.3428   34.8412 H   0  0  0  0  0  0  0  0  0  0  0  0
   11.8375   34.2227   39.0094 H   0  0  0  0  0  0  0  0  0  0  0  0
   17.1561   33.3749   38.8759 H   0  0  0  0  0  0  0  0  0  0  0  0
   17.6815   35.5075   40.4762 H   0  0  0  0  0  0  0  0  0  0  0  0
   17.7643   36.0743   42.7692 H   0  0  0  0  0  0  0  0  0  0  0  0
   18.0320   36.2067   44.7019 H   0  0  0  0  0  0  0  0  0  0  0  0
   17.3014   35.8799   46.1891 H   0  0  0  0  0  0  0  0  0  0  0  0
   17.5335   38.6394   45.5721 H   0  0  0  0  0  0  0  0  0  0  0  0
   16.0030   40.5223   45.3243 H   0  0  0  0  0  0  0  0  0  0  0  0
   13.6838   40.1484   44.5955 H   0  0  0  0  0  0  0  0  0  0  0  0
   14.3960   35.9758   44.3647 H   0  0  0  0  0  0  0  0  0  0  0  0
   15.0013   32.2645   41.3373 H   0  0  0  0  0  0  0  0  0  0  0  0
   17.1646   32.5601   37.2427 H   0  0  0  0  0  0  0  0  0  0  0  0
  1  2  1  0
  1 41  1  0
  1 42  1  0
  1 43  1  0
  2  3  2  0
  2  4  2  0
  2  5  1  0
  5  6  1  0
  5 44  1  0
  5 45  1  0
  6  7  1  0
  6 46  1  0
  6 47  1  0
  7  8  1  0
  7 48  1  0
  7 49  1  0
  8  9  1  0
  8 50  1  0
  8 51  1  0
  9 10  2  0
  9 13  1  0
 10 11  1  0
 10 52  1  0
 11 12  2  0
 11 53  1  0
 12 13  1  0
 12 14  1  0
 14 15  2  0
 14 40  1  0
 15 16  1  0
 15 54  1  0
 16 17  2  0
 16 55  1  0
 17 18  1  0
 17 39  1  0
 18 19  2  0
 19 20  1  0
 19 56  1  0
 20 21  2  0
 21 22  1  0
 21 39  1  0
 22 23  1  0
 22 57  1  0
 23 24  2  0
 23 38  1  0
 24 25  1  0
 24 58  1  0
 25 26  2  0
 25 59  1  0
 26 27  1  0
 26 36  1  0
 27 28  1  0
 28 29  1  0
 28 60  1  0
 28 61  1  0
 29 30  2  0
 29 35  1  0
 30 31  1  0
 30 62  1  0
 31 32  2  0
 31 63  1  0
 32 33  1  0
 32 64  1  0
 33 34  1  0
 33 35  2  0
 35 65  1  0
 36 37  1  0
 36 38  2  0
 38 66  1  0
 39 40  2  0
 40 67  1  0
M  CHG  1   7   1
M  END
$$$$
