1B8_ref
     RDKit          3D

 50 53  0  0  1  0  0  0  0  0999 V2000
   10.2270  -11.4810    4.3250 Cl  0  0  0  0  0  0  0  0  0  0  0  0
   10.4490  -12.9520    5.3250 C   0  0  0  0  0  0  0  0  0  0  0  0
    9.7810  -14.1480    5.0480 C   0  0  0  0  0  0  0  0  0  0  0  0
    9.9480  -15.2480    5.8820 C   0  0  0  0  0  0  0  0  0  0  0  0
   11.3180  -12.8120    6.4250 C   0  0  0  0  0  0  0  0  0  0  0  0
   11.4920  -13.8820    7.2560 C   0  0  0  0  0  0  0  0  0  0  0  0
   10.7900  -15.1280    7.0090 C   0  0  0  0  0  0  0  0  0  0  0  0
   12.4490  -13.8270    8.4660 C   0  0  0  0  0  0  0  0  0  0  0  0
   11.8860  -14.6830    9.5720 C   0  0  0  0  0  0  0  0  0  0  0  0
   12.9230  -14.7590   10.7040 C   0  0  0  0  0  0  0  0  0  0  0  0
   10.6070  -14.0040   10.0670 C   0  0  0  0  0  0  0  0  0  0  0  0
   11.6160  -16.0230    9.0960 N   0  0  0  0  0  0  0  0  0  0  0  0
   11.1030  -16.2580    7.9690 C   0  0  0  0  0  0  0  0  0  0  0  0
   10.9210  -17.4900    7.4530 N   0  0  0  0  0  0  0  0  0  0  0  0
   10.6600  -18.7780    8.1370 C   0  0  2  0  0  0  0  0  0  0  0  0
   11.4620  -19.8230    7.4340 C   0  0  0  0  0  0  0  0  0  0  0  0
   11.7860  -20.9620    7.8100 O   0  0  0  0  0  0  0  0  0  0  0  0
   11.7420  -19.4590    6.3060 O   0  0  0  0  0  0  0  0  0  0  0  0
    9.2970  -19.1570    8.7060 C   0  0  0  0  0  0  0  0  0  0  0  0
    8.7960  -18.0910    9.6120 C   0  0  0  0  0  0  0  0  0  0  0  0
    9.1160  -18.0790   11.0340 C   0  0  0  0  0  0  0  0  0  0  0  0
   10.2200  -19.3720   11.9990 Br  0  0  0  0  0  0  0  0  0  0  0  0
    8.4580  -16.7770   11.9070 S   0  0  0  0  0  0  0  0  0  0  0  0
    7.6440  -16.1170   10.5300 C   0  0  0  0  0  0  0  0  0  0  0  0
    7.9200  -16.8890    9.4120 C   0  0  0  0  0  0  0  0  0  0  0  0
    7.3660  -16.4350    8.1320 C   0  0  0  0  0  0  0  0  0  0  0  0
    7.2600  -15.0700    7.8770 C   0  0  0  0  0  0  0  0  0  0  0  0
    6.8070  -15.0580    6.6080 N   0  0  0  0  0  0  0  0  0  0  0  0
    6.6960  -16.2830    6.1200 N   0  0  0  0  0  0  0  0  0  0  0  0
    7.0640  -17.2190    7.0340 C   0  0  0  0  0  0  0  0  0  0  0  0
    9.1242  -14.2114    4.1922 H   0  0  0  0  0  0  0  0  0  0  0  0
    9.4212  -16.1619    5.6508 H   0  0  0  0  0  0  0  0  0  0  0  0
   11.8325  -11.8802    6.6074 H   0  0  0  0  0  0  0  0  0  0  0  0
   12.6140  -12.7975    8.7910 H   0  0  0  0  0  0  0  0  0  0  0  0
   13.4242  -14.2022    8.1476 H   0  0  0  0  0  0  0  0  0  0  0  0
   12.5543  -15.3220   11.5628 H   0  0  0  0  0  0  0  0  0  0  0  0
   13.8554  -15.2261   10.3839 H   0  0  0  0  0  0  0  0  0  0  0  0
   13.1778  -13.7684   11.0624 H   0  0  0  0  0  0  0  0  0  0  0  0
   10.1517  -14.5585   10.8849 H   0  0  0  0  0  0  0  0  0  0  0  0
   10.8101  -13.0027   10.4509 H   0  0  0  0  0  0  0  0  0  0  0  0
    9.8312  -13.8950    9.3081 H   0  0  0  0  0  0  0  0  0  0  0  0
   11.8691  -16.8172    9.6725 H   0  0  0  0  0  0  0  0  0  0  0  0
   10.7844  -17.5251    6.4535 H   0  0  0  0  0  0  0  0  0  0  0  0
   11.2592  -18.7235    9.0426 H   0  0  0  0  0  0  0  0  0  0  0  0
    9.3682  -20.1013    9.2454 H   0  0  0  0  0  0  0  0  0  0  0  0
    8.6040  -19.3604    7.8944 H   0  0  0  0  0  0  0  0  0  0  0  0
    7.1408  -15.2004   10.4395 H   0  0  0  0  0  0  0  0  0  0  0  0
    7.4647  -14.1696    8.4344 H   0  0  0  0  0  0  0  0  0  0  0  0
    6.6076  -14.2304    6.0592 H   0  0  0  0  0  0  0  0  0  0  0  0
    7.0639  -18.2864    6.8817 H   0  0  0  0  0  0  0  0  0  0  0  0
  1  2  1  0
  2  3  2  0
  2  5  1  0
  3  4  1  0
  3 31  1  0
  4  7  2  0
  4 32  1  0
  5  6  2  0
  5 33  1  0
  6  7  1  0
  6  8  1  0
  7 13  1  0
  8  9  1  0
  8 34  1  0
  8 35  1  0
  9 10  1  0
  9 11  1  0
  9 12  1  0
 10 36  1  0
 10 37  1  0
 10 38  1  0
 11 39  1  0
 11 40  1  0
 11 41  1  0
 12 13  2  0
 12 42  1  0
 13 14  1  0
 14 15  1  0
 14 43  1  0
 15 16  1  0
 15 19  1  0
 15 44  1  1
 16 17  1  0
 16 18  2  0
 19 20  1  0
 19 45  1  0
 19 46  1  0
 20 21  2  0
 20 25  1  0
 21 22  1  0
 21 23  1  0
 23 24  1  0
 24 25  2  0
 24 47  1  0
 25 26  1  0
 26 27  2  0
 26 30  1  0
 27 28  1  0
 27 48  1  0
 28 29  1  0
 28 49  1  0
 29 30  2  0
 30 50  1  0
M  CHG  2  12   1  17  -1
M  END
$$$$
