5_A_M1
 OpenBabel01222416213D

 68 72  0  0  0  0  0  0  0  0999 V2000
   18.2720  -36.3430   12.8040 F   0  0  0  0  0  0  0  0  0  0  0  0
   16.9480  -36.4760   12.9470 C   0  0  0  0  0  0  0  0  0  0  0  0
   16.1630  -37.2550   12.1140 C   0  0  0  0  0  0  0  0  0  0  0  0
   16.6810  -38.0470   10.9760 C   0  0  0  0  0  0  0  0  0  0  0  0
   15.7910  -38.5440   10.0030 C   0  0  0  0  0  0  0  0  0  0  0  0
   16.2310  -39.2930    8.9050 C   0  0  0  0  0  0  0  0  0  0  0  0
   15.3570  -39.7590    7.8750 N   0  0  0  0  0  0  0  0  0  0  0  0
   14.5600  -38.6930    7.1770 C   0  0  0  0  0  0  0  0  0  0  0  0
   15.3870  -37.4340    6.9020 C   0  0  0  0  0  0  0  0  0  0  0  0
   13.2220  -38.3630    7.8300 C   0  0  0  0  0  0  0  0  0  0  0  0
   15.7210  -40.9590    7.2070 C   0  0  0  0  0  0  0  0  0  0  0  0
   14.6180  -41.8830    6.6820 C   0  0  2  0  0  0  0  0  0  0  0  0
   14.4610  -41.8290    5.1840 N   0  3  0  0  0  0  0  0  0  0  0  0
   13.0170  -42.0310    4.8730 C   0  0  0  0  0  0  0  0  0  0  0  0
   12.3190  -41.3670    6.0360 C   0  0  0  0  0  0  0  0  0  0  0  0
   13.1930  -41.7090    7.2330 C   0  0  0  0  0  0  0  0  0  0  0  0
   17.0190  -41.3390    7.0940 C   0  0  0  0  0  0  0  0  0  0  0  0
   17.5890  -42.5320    6.3800 C   0  0  0  0  0  0  0  0  0  0  0  0
   18.0560  -40.4850    7.7480 C   0  0  0  0  0  0  0  0  0  0  0  0
   19.2390  -40.5760    7.4470 O   0  0  0  0  0  0  0  0  0  0  0  0
   17.5990  -39.5930    8.8250 C   0  0  0  0  0  0  0  0  0  0  0  0
   18.5120  -39.1040    9.7540 C   0  0  0  0  0  0  0  0  0  0  0  0
   18.0450  -38.3400   10.8180 C   0  0  0  0  0  0  0  0  0  0  0  0
   14.8170  -37.3340   12.3000 N   0  0  0  0  0  0  0  0  0  0  0  0
   14.2720  -36.6470   13.3230 C   0  0  0  0  0  0  0  0  0  0  0  0
   12.9250  -36.7210   13.5720 N   0  0  0  0  0  0  0  0  0  0  0  0
   11.9960  -37.3330   12.6350 C   0  0  1  0  0  0  0  0  0  0  0  0
   10.5420  -37.0030   13.0480 C   0  0  2  0  0  0  0  0  0  0  0  0
   10.2540  -37.5690   14.3290 O   0  0  0  0  0  0  0  0  0  0  0  0
    9.5780  -37.5530   11.9940 C   0  0  0  0  0  0  0  0  0  0  0  0
    9.8780  -37.0510   10.6920 O   0  0  0  0  0  0  0  0  0  0  0  0
   11.1940  -37.3930   10.2700 C   0  0  0  0  0  0  0  0  0  0  0  0
   12.2380  -36.8200   11.2150 C   0  0  0  0  0  0  0  0  0  0  0  0
   14.9790  -35.8790   14.1690 N   0  0  0  0  0  0  0  0  0  0  0  0
   16.3070  -35.8060   13.9590 C   0  0  0  0  0  0  0  0  0  0  0  0
   14.7370  -38.3450   10.1410 H   0  0  0  0  0  0  0  0  0  0  0  0
   14.3000  -39.0830    6.1890 H   0  0  0  0  0  0  0  0  0  0  0  0
   14.7310  -36.5650    6.7820 H   0  0  0  0  0  0  0  0  0  0  0  0
   15.9710  -37.5420    5.9810 H   0  0  0  0  0  0  0  0  0  0  0  0
   16.0830  -37.2100    7.7170 H   0  0  0  0  0  0  0  0  0  0  0  0
   12.4060  -38.5440    7.1190 H   0  0  0  0  0  0  0  0  0  0  0  0
   13.1460  -37.3080    8.1090 H   0  0  0  0  0  0  0  0  0  0  0  0
   13.0330  -38.9780    8.7130 H   0  0  0  0  0  0  0  0  0  0  0  0
   14.8860  -42.9240    6.9020 H   0  0  0  0  0  0  0  0  0  0  0  0
   14.7850  -40.9210    4.8340 H   0  0  0  0  0  0  0  0  0  0  0  0
   12.8010  -41.5770    3.9030 H   0  0  0  0  0  0  0  0  0  0  0  0
   12.8410  -43.1110    4.8440 H   0  0  0  0  0  0  0  0  0  0  0  0
   12.2800  -40.2830    5.8870 H   0  0  0  0  0  0  0  0  0  0  0  0
   11.2910  -41.7210    6.1590 H   0  0  0  0  0  0  0  0  0  0  0  0
   12.8570  -42.6650    7.6600 H   0  0  0  0  0  0  0  0  0  0  0  0
   13.1020  -40.9710    8.0340 H   0  0  0  0  0  0  0  0  0  0  0  0
   18.0010  -42.2390    5.4090 H   0  0  0  0  0  0  0  0  0  0  0  0
   16.8510  -43.3110    6.1740 H   0  0  0  0  0  0  0  0  0  0  0  0
   18.3910  -42.9810    6.9760 H   0  0  0  0  0  0  0  0  0  0  0  0
   19.5710  -39.3360    9.6710 H   0  0  0  0  0  0  0  0  0  0  0  0
   18.7690  -37.9920   11.5410 H   0  0  0  0  0  0  0  0  0  0  0  0
   12.7100  -36.7740   14.5600 H   0  0  0  0  0  0  0  0  0  0  0  0
   12.1170  -38.4250   12.6730 H   0  0  0  0  0  0  0  0  0  0  0  0
   10.4280  -35.9140   13.1260 H   0  0  0  0  0  0  0  0  0  0  0  0
    9.7010  -36.9310   14.8140 H   0  0  0  0  0  0  0  0  0  0  0  0
    9.5880  -38.6490   11.9800 H   0  0  0  0  0  0  0  0  0  0  0  0
    8.5510  -37.2600   12.2430 H   0  0  0  0  0  0  0  0  0  0  0  0
   11.2810  -38.4840   10.1940 H   0  0  0  0  0  0  0  0  0  0  0  0
   11.3380  -36.9820    9.2650 H   0  0  0  0  0  0  0  0  0  0  0  0
   12.1720  -35.7240   11.2080 H   0  0  0  0  0  0  0  0  0  0  0  0
   13.2390  -37.0810   10.8600 H   0  0  0  0  0  0  0  0  0  0  0  0
   16.8730  -35.1810   14.6390 H   0  0  0  0  0  0  0  0  0  0  0  0
   15.0500  -42.5360    4.7290 H   0  0  0  0  0  0  0  0  0  0  0  0
  1  2  1  0  0  0  0
  2  3  2  0  0  0  0
  2 35  1  0  0  0  0
  3  4  1  0  0  0  0
  3 24  1  0  0  0  0
  4  5  2  0  0  0  0
  4 23  1  0  0  0  0
  5  6  1  0  0  0  0
  5 36  1  0  0  0  0
  6  7  1  0  0  0  0
  6 21  2  0  0  0  0
  7  8  1  0  0  0  0
  7 11  1  0  0  0  0
  8  9  1  0  0  0  0
  8 10  1  0  0  0  0
  8 37  1  0  0  0  0
  9 38  1  0  0  0  0
  9 39  1  0  0  0  0
  9 40  1  0  0  0  0
 10 41  1  0  0  0  0
 10 42  1  0  0  0  0
 10 43  1  0  0  0  0
 11 12  1  0  0  0  0
 11 17  2  0  0  0  0
 12 13  1  0  0  0  0
 12 16  1  0  0  0  0
 12 44  1  1  0  0  0
 13 14  1  0  0  0  0
 13 45  1  0  0  0  0
 13 68  1  0  0  0  0
 14 15  1  0  0  0  0
 14 46  1  0  0  0  0
 14 47  1  0  0  0  0
 15 16  1  0  0  0  0
 15 48  1  0  0  0  0
 15 49  1  0  0  0  0
 16 50  1  0  0  0  0
 16 51  1  0  0  0  0
 17 18  1  0  0  0  0
 17 19  1  0  0  0  0
 18 52  1  0  0  0  0
 18 53  1  0  0  0  0
 18 54  1  0  0  0  0
 19 20  2  0  0  0  0
 19 21  1  0  0  0  0
 21 22  1  0  0  0  0
 22 23  2  0  0  0  0
 22 55  1  0  0  0  0
 23 56  1  0  0  0  0
 24 25  2  0  0  0  0
 25 26  1  0  0  0  0
 25 34  1  0  0  0  0
 26 27  1  0  0  0  0
 26 57  1  0  0  0  0
 27 28  1  0  0  0  0
 27 33  1  0  0  0  0
 27 58  1  1  0  0  0
 28 29  1  0  0  0  0
 28 30  1  0  0  0  0
 28 59  1  1  0  0  0
 29 60  1  0  0  0  0
 30 31  1  0  0  0  0
 30 61  1  0  0  0  0
 30 62  1  0  0  0  0
 31 32  1  0  0  0  0
 32 33  1  0  0  0  0
 32 63  1  0  0  0  0
 32 64  1  0  0  0  0
 33 65  1  0  0  0  0
 33 66  1  0  0  0  0
 34 35  2  0  0  0  0
 35 67  1  0  0  0  0
M  CHG  1  13   1
M  END
$$$$
