F82_ref
     RDKit          3D

 62 65  0  0  1  0  0  0  0  0999 V2000
   20.4930    0.4060    4.3620 C   0  0  0  0  0  0  0  0  0  0  0  0
   20.2810   -1.0390    3.9580 C   0  0  0  0  0  0  0  0  0  0  0  0
   18.0460    0.7660    4.9730 C   0  0  0  0  0  0  0  0  0  0  0  0
    9.6290   -1.6030   15.6380 O   0  0  0  0  0  0  0  0  0  0  0  0
   13.7410    1.4470    6.2190 C   0  0  0  0  0  0  0  0  0  0  0  0
   13.1350    0.8170    7.4560 C   0  0  0  0  0  0  0  0  0  0  0  0
   13.8100    0.8290    8.6710 C   0  0  0  0  0  0  0  0  0  0  0  0
   13.2600    0.2530    9.8050 C   0  0  0  0  0  0  0  0  0  0  0  0
   12.0130   -0.3350    9.7310 C   0  0  0  0  0  0  0  0  0  0  0  0
   11.3010   -0.3560    8.5380 C   0  0  0  0  0  0  0  0  0  0  0  0
   11.8650    0.2170    7.4060 C   0  0  0  0  0  0  0  0  0  0  0  0
    9.8850   -0.1900    6.1150 C   0  0  0  0  0  0  0  0  0  0  0  0
   11.1860   -2.2140   10.9590 C   0  0  0  0  0  0  0  0  0  0  0  0
   10.6600   -2.6160   12.2220 C   0  0  0  0  0  0  0  0  0  0  0  0
    9.5980   -3.6930   14.5730 C   0  0  0  0  0  0  0  0  0  0  0  0
    9.8240   -4.5140   13.5010 C   0  0  0  0  0  0  0  0  0  0  0  0
   10.3580   -3.9950   12.3020 C   0  0  0  0  0  0  0  0  0  0  0  0
   11.0730   -4.3070   10.1600 C   0  0  0  0  0  0  0  0  0  0  0  0
    9.9570   -0.2070   15.6690 C   0  0  0  0  0  0  0  0  0  0  0  0
   15.8570    0.3720    6.7100 O   0  0  0  0  0  0  0  0  0  0  0  0
   15.2300    1.2060    6.0520 C   0  0  0  0  0  0  0  0  0  0  0  0
   15.8080    1.9210    5.0530 N   0  0  0  0  0  0  0  0  0  0  0  0
   17.1540    1.7590    4.6930 C   0  0  0  0  0  0  0  0  0  0  0  0
   17.8570    2.6870    3.9170 C   0  0  0  0  0  0  0  0  0  0  0  0
   19.1060    2.3050    3.7160 N   0  0  0  0  0  0  0  0  0  0  0  0
   19.2010    1.1210    4.3730 N   0  0  0  0  0  0  0  0  0  0  0  0
   21.1380    0.5020    5.7260 C   0  0  0  0  0  0  0  0  0  0  0  0
   11.2510    0.2490    6.1880 O   0  0  0  0  0  0  0  0  0  0  0  0
   11.4820   -0.8880   10.8770 O   0  0  0  0  0  0  0  0  0  0  0  0
   11.3950   -3.0270    9.9460 N   0  0  0  0  0  0  0  0  0  0  0  0
   10.5660   -4.8580   11.2590 N   0  0  0  0  0  0  0  0  0  0  0  0
    9.0880   -4.0970   15.7800 O   0  0  0  0  0  0  0  0  0  0  0  0
    8.7540   -5.4750   15.9410 C   0  0  0  0  0  0  0  0  0  0  0  0
    9.8950   -2.3090   14.4930 C   0  0  0  0  0  0  0  0  0  0  0  0
   10.4120   -1.7790   13.3410 C   0  0  0  0  0  0  0  0  0  0  0  0
   21.1507    0.8779    3.6279 H   0  0  0  0  0  0  0  0  0  0  0  0
   21.1861   -1.6288    4.0784 H   0  0  0  0  0  0  0  0  0  0  0  0
   19.5195   -1.5207    4.5710 H   0  0  0  0  0  0  0  0  0  0  0  0
   19.9672   -1.1250    2.9177 H   0  0  0  0  0  0  0  0  0  0  0  0
   17.9705   -0.1542    5.5324 H   0  0  0  0  0  0  0  0  0  0  0  0
   13.5517    2.5162    6.2813 H   0  0  0  0  0  0  0  0  0  0  0  0
   13.2661    1.0881    5.3055 H   0  0  0  0  0  0  0  0  0  0  0  0
   14.7726    1.3048    8.7702 H   0  0  0  0  0  0  0  0  0  0  0  0
   13.7997    0.2741   10.7401 H   0  0  0  0  0  0  0  0  0  0  0  0
   10.3296   -0.8235    8.5228 H   0  0  0  0  0  0  0  0  0  0  0  0
    9.5266   -0.0438    5.1016 H   0  0  0  0  0  0  0  0  0  0  0  0
    9.7656   -1.2363    6.3562 H   0  0  0  0  0  0  0  0  0  0  0  0
    9.2437    0.3666    6.7970 H   0  0  0  0  0  0  0  0  0  0  0  0
    9.5806   -5.5643   13.5332 H   0  0  0  0  0  0  0  0  0  0  0  0
   11.2779   -4.9739    9.3447 H   0  0  0  0  0  0  0  0  0  0  0  0
    9.6847    0.2026   16.6414 H   0  0  0  0  0  0  0  0  0  0  0  0
   11.0270   -0.0449   15.5351 H   0  0  0  0  0  0  0  0  0  0  0  0
    9.4149    0.3604   14.9112 H   0  0  0  0  0  0  0  0  0  0  0  0
   15.2800    2.6704    4.6155 H   0  0  0  0  0  0  0  0  0  0  0  0
   17.4775    3.6164    3.5224 H   0  0  0  0  0  0  0  0  0  0  0  0
   21.3310    1.5408    5.9983 H   0  0  0  0  0  0  0  0  0  0  0  0
   20.5035    0.0729    6.5025 H   0  0  0  0  0  0  0  0  0  0  0  0
   22.0906   -0.0236    5.7561 H   0  0  0  0  0  0  0  0  0  0  0  0
    8.3438   -5.6294   16.9386 H   0  0  0  0  0  0  0  0  0  0  0  0
    7.9974   -5.7930   15.2257 H   0  0  0  0  0  0  0  0  0  0  0  0
    9.6305   -6.1132   15.8512 H   0  0  0  0  0  0  0  0  0  0  0  0
   10.6349   -0.7304   13.2515 H   0  0  0  0  0  0  0  0  0  0  0  0
  1  2  1  0
  1 26  1  0
  1 27  1  0
  1 36  1  0
  2 37  1  0
  2 38  1  0
  2 39  1  0
  3 23  2  0
  3 26  1  0
  3 40  1  0
  4 19  1  0
  4 34  1  0
  5  6  1  0
  5 21  1  0
  5 41  1  0
  5 42  1  0
  6  7  2  0
  6 11  1  0
  7  8  1  0
  7 43  1  0
  8  9  2  0
  8 44  1  0
  9 10  1  0
  9 29  1  0
 10 11  2  0
 10 45  1  0
 11 28  1  0
 12 28  1  0
 12 46  1  0
 12 47  1  0
 12 48  1  0
 13 14  1  0
 13 29  1  0
 13 30  2  0
 14 17  2  0
 14 35  1  0
 15 16  2  0
 15 32  1  0
 15 34  1  0
 16 17  1  0
 16 49  1  0
 17 31  1  0
 18 30  1  0
 18 31  2  0
 18 50  1  0
 19 51  1  0
 19 52  1  0
 19 53  1  0
 20 21  2  0
 21 22  1  0
 22 23  1  0
 22 54  1  0
 23 24  1  0
 24 25  2  0
 24 55  1  0
 25 26  1  0
 27 56  1  0
 27 57  1  0
 27 58  1  0
 32 33  1  0
 33 59  1  0
 33 60  1  0
 33 61  1  0
 34 35  2  0
 35 62  1  0
M  END
$$$$
