K4K_ref
     RDKit          3D

 41 43  0  0  1  0  0  0  0  0999 V2000
   26.0480   22.2050   17.7780 C   0  0  0  0  0  0  0  0  0  0  0  0
   24.6390   22.6570   17.4700 C   0  0  1  0  0  0  0  0  0  0  0  0
   25.3580   18.3290   15.1630 C   0  0  0  0  0  0  0  0  0  0  0  0
   27.3010   21.3390   19.6720 C   0  0  0  0  0  0  0  0  0  0  0  0
   26.9060   16.6360   16.1380 C   0  0  0  0  0  0  0  0  0  0  0  0
   26.5530   18.7990   15.5120 C   0  0  0  0  0  0  0  0  0  0  0  0
   27.4070   17.8640   16.0510 C   0  0  0  0  0  0  0  0  0  0  0  0
   24.2430   19.1370   14.5660 C   0  0  0  0  0  0  0  0  0  0  0  0
   28.4230   22.1560   19.6720 C   0  0  0  0  0  0  0  0  0  0  0  0
   29.5730   21.7330   20.3020 C   0  0  0  0  0  0  0  0  0  0  0  0
   28.4750   19.7040   20.9500 C   0  0  0  0  0  0  0  0  0  0  0  0
   29.5950   20.5090   20.9400 C   0  0  0  0  0  0  0  0  0  0  0  0
   26.1370   21.7870   19.0500 N   0  0  0  0  0  0  0  0  0  0  0  0
   23.9260   21.7380   16.4980 C   0  0  0  0  0  0  0  0  0  0  0  0
   24.8620   21.8940   19.7570 C   0  0  0  0  0  0  0  0  0  0  0  0
   23.9020   22.6570   18.8270 C   0  0  0  0  0  0  0  0  0  0  0  0
   25.2660   16.6210   15.5230 S   0  0  0  0  0  0  0  0  0  0  0  0
   26.9630   22.2250   16.9860 O   0  0  0  0  0  0  0  0  0  0  0  0
   23.2650   22.2040   15.5950 O   0  0  0  0  0  0  0  0  0  0  0  0
   24.0050   20.4010   16.6410 N   0  0  0  0  0  0  0  0  0  0  0  0
   23.3040   19.5140   15.7070 C   0  0  0  0  0  0  0  0  0  0  0  0
   27.3230   20.1200   20.3250 C   0  0  0  0  0  0  0  0  0  0  0  0
   24.6930   24.0040   17.0040 O   0  0  0  0  0  0  0  0  0  0  0  0
   27.3818   15.7351   16.4790 H   0  0  0  0  0  0  0  0  0  0  0  0
   26.8298   19.8341   15.3785 H   0  0  0  0  0  0  0  0  0  0  0  0
   28.4141   18.0850   16.3596 H   0  0  0  0  0  0  0  0  0  0  0  0
   23.7075   18.5498   13.8231 H   0  0  0  0  0  0  0  0  0  0  0  0
   24.5702   20.0394   14.0530 H   0  0  0  0  0  0  0  0  0  0  0  0
   28.4072   23.1204   19.1837 H   0  0  0  0  0  0  0  0  0  0  0  0
   30.4493   22.3625   20.3033 H   0  0  0  0  0  0  0  0  0  0  0  0
   28.4916   18.7622   21.4787 H   0  0  0  0  0  0  0  0  0  0  0  0
   30.4937   20.1848   21.4442 H   0  0  0  0  0  0  0  0  0  0  0  0
   24.9824   22.4235   20.7028 H   0  0  0  0  0  0  0  0  0  0  0  0
   24.4694   20.9017   19.9767 H   0  0  0  0  0  0  0  0  0  0  0  0
   22.9152   22.1965   18.8252 H   0  0  0  0  0  0  0  0  0  0  0  0
   23.7483   23.6682   19.1944 H   0  0  0  0  0  0  0  0  0  0  0  0
   24.5132   19.9774   17.4073 H   0  0  0  0  0  0  0  0  0  0  0  0
   22.9900   18.6203   16.2466 H   0  0  0  0  0  0  0  0  0  0  0  0
   22.3752   19.9363   15.3207 H   0  0  0  0  0  0  0  0  0  0  0  0
   26.4251   19.5492   20.4303 H   0  0  0  0  0  0  0  0  0  0  0  0
   25.1707   24.5566   17.6440 H   0  0  0  0  0  0  0  0  0  0  0  0
  1  2  1  0
  1 13  1  0
  1 18  2  0
  2 14  1  0
  2 16  1  0
  2 23  1  6
  3  6  2  0
  3  8  1  0
  3 17  1  0
  4  9  2  0
  4 13  1  0
  4 22  1  0
  5  7  2  0
  5 17  1  0
  5 24  1  0
  6  7  1  0
  6 25  1  0
  7 26  1  0
  8 21  1  0
  8 27  1  0
  8 28  1  0
  9 10  1  0
  9 29  1  0
 10 12  2  0
 10 30  1  0
 11 12  1  0
 11 22  2  0
 11 31  1  0
 12 32  1  0
 13 15  1  0
 14 19  2  0
 14 20  1  0
 15 16  1  0
 15 33  1  0
 15 34  1  0
 16 35  1  0
 16 36  1  0
 20 21  1  0
 20 37  1  0
 21 38  1  0
 21 39  1  0
 22 40  1  0
 23 41  1  0
M  END
$$$$
