21U_ref
     RDKit          3D

 51 52  0  0  1  0  0  0  0  0999 V2000
   16.9520  -15.4520   23.4520 N   0  0  0  0  0  0  0  0  0  0  0  0
   18.1560  -14.6200   23.2580 C   0  0  2  0  0  0  0  0  0  0  0  0
   18.8410  -14.3680   24.6270 C   0  0  0  0  0  0  0  0  0  0  0  0
   20.1150  -13.4720   24.5690 C   0  0  0  0  0  0  0  0  0  0  0  0
   21.3580  -14.2490   24.0210 C   0  0  0  0  0  0  0  0  0  0  0  0
   20.4910  -12.8930   25.9600 C   0  0  0  0  0  0  0  0  0  0  0  0
   17.7200  -13.3370   22.5570 C   0  0  0  0  0  0  0  0  0  0  0  0
   16.7270  -12.7840   23.0250 O   0  0  0  0  0  0  0  0  0  0  0  0
   18.3370  -12.8670   21.4540 N   0  0  0  0  0  0  0  0  0  0  0  0
   17.8760  -11.6540   20.7960 C   0  0  2  0  0  0  0  0  0  0  0  0
   16.3960  -11.6850   20.4790 C   0  0  0  0  0  0  0  0  0  0  0  0
   15.9090  -12.6940   19.9660 O   0  0  0  0  0  0  0  0  0  0  0  0
   18.6500  -11.7230   19.4530 C   0  0  0  0  0  0  0  0  0  0  0  0
   19.8430  -12.6280   19.7140 C   0  0  0  0  0  0  0  0  0  0  0  0
   19.4100  -13.6200   20.8020 C   0  0  0  0  0  0  0  0  0  0  0  0
   15.6640  -10.5860   20.7750 N   0  0  0  0  0  0  0  0  0  0  0  0
   14.2650  -10.5340   20.3250 C   0  0  0  0  0  0  0  0  0  0  0  0
   13.3050  -10.4040   21.5140 C   0  0  0  0  0  0  0  0  0  0  0  0
   12.4090  -11.4440   21.7710 C   0  0  0  0  0  0  0  0  0  0  0  0
   11.5260  -11.3600   22.8390 C   0  0  0  0  0  0  0  0  0  0  0  0
   11.5060  -10.2380   23.6860 C   0  0  0  0  0  0  0  0  0  0  0  0
   12.4020   -9.2010   23.4270 C   0  0  0  0  0  0  0  0  0  0  0  0
   13.2920   -9.2860   22.3500 C   0  0  0  0  0  0  0  0  0  0  0  0
   12.4070   -7.7890   24.4620 Cl  0  0  0  0  0  0  0  0  0  0  0  0
   16.4430  -15.4857   22.5748 H   0  0  0  0  0  0  0  0  0  0  0  0
   17.2373  -16.3898   23.6928 H   0  0  0  0  0  0  0  0  0  0  0  0
   16.3767  -15.0653   24.1907 H   0  0  0  0  0  0  0  0  0  0  0  0
   18.7981  -15.2735   22.6679 H   0  0  0  0  0  0  0  0  0  0  0  0
   19.1057  -15.3116   25.1094 H   0  0  0  0  0  0  0  0  0  0  0  0
   18.1224  -13.8938   25.3004 H   0  0  0  0  0  0  0  0  0  0  0  0
   19.9318  -12.6202   23.9167 H   0  0  0  0  0  0  0  0  0  0  0  0
   21.9073  -13.6333   23.3081 H   0  0  0  0  0  0  0  0  0  0  0  0
   22.0625  -14.5532   24.7948 H   0  0  0  0  0  0  0  0  0  0  0  0
   21.0657  -15.1599   23.4988 H   0  0  0  0  0  0  0  0  0  0  0  0
   21.5169  -13.0993   26.2604 H   0  0  0  0  0  0  0  0  0  0  0  0
   20.3812  -11.8081   25.9645 H   0  0  0  0  0  0  0  0  0  0  0  0
   19.8493  -13.2810   26.7515 H   0  0  0  0  0  0  0  0  0  0  0  0
   18.1605  -10.7793   21.3822 H   0  0  0  0  0  0  0  0  0  0  0  0
   19.0438  -10.7718   19.1994 H   0  0  0  0  0  0  0  0  0  0  0  0
   18.0592  -12.1035   18.6180 H   0  0  0  0  0  0  0  0  0  0  0  0
   20.6567  -12.0197   20.1132 H   0  0  0  0  0  0  0  0  0  0  0  0
   20.2172  -13.1118   18.8129 H   0  0  0  0  0  0  0  0  0  0  0  0
   19.0056  -14.5336   20.3663 H   0  0  0  0  0  0  0  0  0  0  0  0
   20.2385  -13.8711   21.4627 H   0  0  0  0  0  0  0  0  0  0  0  0
   16.0791   -9.7717   21.2111 H   0  0  0  0  0  0  0  0  0  0  0  0
   13.9413  -11.3400   19.6614 H   0  0  0  0  0  0  0  0  0  0  0  0
   14.1373   -9.6268   19.7413 H   0  0  0  0  0  0  0  0  0  0  0  0
   12.3932  -12.3232   21.1430 H   0  0  0  0  0  0  0  0  0  0  0  0
   10.8341  -12.1690   23.0228 H   0  0  0  0  0  0  0  0  0  0  0  0
   10.8136  -10.1856   24.5135 H   0  0  0  0  0  0  0  0  0  0  0  0
   13.9882   -8.4818   22.1711 H   0  0  0  0  0  0  0  0  0  0  0  0
  1  2  1  0
  1 25  1  0
  1 26  1  0
  1 27  1  0
  2  3  1  0
  2  7  1  0
  2 28  1  6
  3  4  1  0
  3 29  1  0
  3 30  1  0
  4  5  1  0
  4  6  1  0
  4 31  1  0
  5 32  1  0
  5 33  1  0
  5 34  1  0
  6 35  1  0
  6 36  1  0
  6 37  1  0
  7  8  2  0
  7  9  1  0
  9 10  1  0
  9 15  1  0
 10 11  1  0
 10 13  1  0
 10 38  1  1
 11 12  2  0
 11 16  1  0
 13 14  1  0
 13 39  1  0
 13 40  1  0
 14 15  1  0
 14 41  1  0
 14 42  1  0
 15 43  1  0
 15 44  1  0
 16 17  1  0
 16 45  1  0
 17 18  1  0
 17 46  1  0
 17 47  1  0
 18 19  2  0
 18 23  1  0
 19 20  1  0
 19 48  1  0
 20 21  2  0
 20 49  1  0
 21 22  1  0
 21 50  1  0
 22 23  2  0
 22 24  1  0
 23 51  1  0
M  CHG  1   1   1
M  END
$$$$
