H64_ref
     RDKit          3D

 50 53  0  0  1  0  0  0  0  0999 V2000
    5.3730    5.8070   26.8060 C   0  0  0  0  0  0  0  0  0  0  0  0
    3.9740    5.4860   27.3370 C   0  0  0  0  0  0  0  0  0  0  0  0
    3.9300    4.0400   27.8350 C   0  0  0  0  0  0  0  0  0  0  0  0
    2.9760    5.6620   26.2710 N   0  0  0  0  0  0  0  0  0  0  0  0
    2.5120    7.0570   26.2210 C   0  0  0  0  0  0  0  0  0  0  0  0
    3.5710    7.9560   25.5800 C   0  0  0  0  0  0  0  0  0  0  0  0
    3.3000    9.4330   25.8800 C   0  0  0  0  0  0  0  0  0  0  0  0
    2.0790    9.9150   25.2200 N   0  0  0  0  0  0  0  0  0  0  0  0
    0.8610    9.9490   25.7530 C   0  0  0  0  0  0  0  0  0  0  0  0
    0.3330    9.5220   26.9070 N   0  0  0  0  0  0  0  0  0  0  0  0
   -0.9500    9.7050   27.1660 C   0  0  0  0  0  0  0  0  0  0  0  0
   -1.7520   10.3100   26.3070 N   0  0  0  0  0  0  0  0  0  0  0  0
   -1.2920   10.7590   25.1310 C   0  0  0  0  0  0  0  0  0  0  0  0
   -2.1070   11.3640   24.2710 N   0  0  0  0  0  0  0  0  0  0  0  0
    0.0500   10.5850   24.8190 C   0  0  0  0  0  0  0  0  0  0  0  0
    0.7950   10.9010   23.7640 N   0  0  0  0  0  0  0  0  0  0  0  0
    2.0320   10.4820   24.0180 C   0  0  0  0  0  0  0  0  0  0  0  0
    3.3930   10.6440   22.9300 S   0  0  0  0  0  0  0  0  0  0  0  0
    4.3230   11.8880   23.7360 C   0  0  0  0  0  0  0  0  0  0  0  0
    3.6620   12.9870   24.2740 C   0  0  0  0  0  0  0  0  0  0  0  0
    4.3840   14.0110   24.8770 C   0  0  0  0  0  0  0  0  0  0  0  0
    4.0040   15.1810   25.4580 O   0  0  0  0  0  0  0  0  0  0  0  0
    5.1620   16.0040   25.2600 C   0  0  0  0  0  0  0  0  0  0  0  0
    6.2220   15.0760   25.5300 O   0  0  0  0  0  0  0  0  0  0  0  0
    5.7720   13.9370   24.9370 C   0  0  0  0  0  0  0  0  0  0  0  0
    6.4310   12.8380   24.4010 C   0  0  0  0  0  0  0  0  0  0  0  0
    5.7110   11.8090   23.8020 C   0  0  0  0  0  0  0  0  0  0  0  0
    6.6380   10.2970   23.1340 Br  0  0  0  0  0  0  0  0  0  0  0  0
    5.8003    6.7269   26.5175 H   0  0  0  0  0  0  0  0  0  0  0  0
    6.0182    5.6093   27.6599 H   0  0  0  0  0  0  0  0  0  0  0  0
    5.6371    5.0094   26.1307 H   0  0  0  0  0  0  0  0  0  0  0  0
    3.7072    6.1535   28.1607 H   0  0  0  0  0  0  0  0  0  0  0  0
    3.1231    3.8941   28.5539 H   0  0  0  0  0  0  0  0  0  0  0  0
    3.6898    3.4425   26.9748 H   0  0  0  0  0  0  0  0  0  0  0  0
    4.8569    3.6959   28.2964 H   0  0  0  0  0  0  0  0  0  0  0  0
    2.1794    5.0713   26.4647 H   0  0  0  0  0  0  0  0  0  0  0  0
    3.3650    5.3762   25.3830 H   0  0  0  0  0  0  0  0  0  0  0  0
    1.5507    7.3043   26.6376 H   0  0  0  0  0  0  0  0  0  0  0  0
    1.9918    6.8113   25.2979 H   0  0  0  0  0  0  0  0  0  0  0  0
    3.6513    7.7893   24.5033 H   0  0  0  0  0  0  0  0  0  0  0  0
    4.5485    7.9309   25.9464 H   0  0  0  0  0  0  0  0  0  0  0  0
    4.1219   10.0709   25.5708 H   0  0  0  0  0  0  0  0  0  0  0  0
    3.1415    9.6027   26.9427 H   0  0  0  0  0  0  0  0  0  0  0  0
   -1.3502    9.3662   28.1095 H   0  0  0  0  0  0  0  0  0  0  0  0
   -1.7536   11.6693   23.3747 H   0  0  0  0  0  0  0  0  0  0  0  0
   -3.0894   11.4609   24.4977 H   0  0  0  0  0  0  0  0  0  0  0  0
    2.5873   13.0686   24.2103 H   0  0  0  0  0  0  0  0  0  0  0  0
    5.1506   16.7689   26.0302 H   0  0  0  0  0  0  0  0  0  0  0  0
    5.2378   16.5271   24.3150 H   0  0  0  0  0  0  0  0  0  0  0  0
    7.5021   12.8044   24.4433 H   0  0  0  0  0  0  0  0  0  0  0  0
  1  2  1  0
  1 29  1  0
  1 30  1  0
  1 31  1  0
  2  3  1  0
  2  4  1  0
  2 32  1  0
  3 33  1  0
  3 34  1  0
  3 35  1  0
  4  5  1  0
  4 36  1  0
  4 37  1  0
  5  6  1  0
  5 38  1  0
  5 39  1  0
  6  7  1  0
  6 40  1  0
  6 41  1  0
  7  8  1  0
  7 42  1  0
  7 43  1  0
  8  9  1  0
  8 17  1  0
  9 10  2  0
  9 15  1  0
 10 11  1  0
 11 12  2  0
 11 44  1  0
 12 13  1  0
 13 14  1  0
 13 15  2  0
 14 45  1  0
 14 46  1  0
 15 16  1  0
 16 17  2  0
 17 18  1  0
 18 19  1  0
 19 20  2  0
 19 27  1  0
 20 21  1  0
 20 47  1  0
 21 22  1  0
 21 25  2  0
 22 23  1  0
 23 24  1  0
 23 48  1  0
 23 49  1  0
 24 25  1  0
 25 26  1  0
 26 27  2  0
 26 50  1  0
 27 28  1  0
M  CHG  1   4   1
M  END
$$$$
