5I5_ref
     RDKit          3D

 32 34  0  0  1  0  0  0  0  0999 V2000
   -6.0910   20.4850   19.4080 N   0  0  0  0  0  0  0  0  0  0  0  0
   -5.3990   20.6250   20.5670 C   0  0  0  0  0  0  0  0  0  0  0  0
   -5.0350   19.5300   21.3330 C   0  0  0  0  0  0  0  0  0  0  0  0
   -5.4450   18.2540   20.8650 C   0  0  0  0  0  0  0  0  0  0  0  0
   -6.1470   18.1240   19.7190 N   0  0  0  0  0  0  0  0  0  0  0  0
   -6.4260   19.2320   19.0180 C   0  0  0  0  0  0  0  0  0  0  0  0
   -4.3050   19.3210   22.5380 C   0  0  0  0  0  0  0  0  0  0  0  0
   -4.2920   17.9170   22.7420 C   0  0  0  0  0  0  0  0  0  0  0  0
   -4.9730   17.2750   21.7430 N   0  0  0  0  0  0  0  0  0  0  0  0
   -3.4450   20.7660   23.7200 I   0  0  0  0  0  0  0  0  0  0  0  0
   -5.0690   21.8740   20.8730 N   0  0  0  0  0  0  0  0  0  0  0  0
   -3.9730   13.6620   21.8820 C   0  0  1  0  0  0  0  0  0  0  0  0
   -3.7690   15.1230   21.4020 C   0  0  2  0  0  0  0  0  0  0  0  0
   -5.1350   15.7860   21.5620 C   0  0  1  0  0  0  0  0  0  0  0  0
   -5.7170   15.0870   22.6150 O   0  0  0  0  0  0  0  0  0  0  0  0
   -5.3200   13.7280   22.5950 C   0  0  2  0  0  0  0  0  0  0  0  0
   -3.9610   12.7290   20.8030 O   0  0  0  0  0  0  0  0  0  0  0  0
   -3.2750   15.1700   20.0420 O   0  0  0  0  0  0  0  0  0  0  0  0
   -5.2340   13.1940   24.0110 C   0  0  0  0  0  0  0  0  0  0  0  0
   -7.0545   19.1111   18.1533 H   0  0  0  0  0  0  0  0  0  0  0  0
   -3.8374   17.3390   23.5283 H   0  0  0  0  0  0  0  0  0  0  0  0
   -4.5834   22.0590   21.7381 H   0  0  0  0  0  0  0  0  0  0  0  0
   -5.4655   22.6241   20.3154 H   0  0  0  0  0  0  0  0  0  0  0  0
   -3.1662   13.4008   22.5701 H   0  0  0  0  0  0  0  0  0  0  0  0
   -3.0568   15.6006   22.0762 H   0  0  0  0  0  0  0  0  0  0  0  0
   -5.7470   15.6332   20.6735 H   0  0  0  0  0  0  0  0  0  0  0  0
   -6.0474   13.1598   22.0311 H   0  0  0  0  0  0  0  0  0  0  0  0
   -3.0409   12.5791   20.5462 H   0  0  0  0  0  0  0  0  0  0  0  0
   -2.3865   14.7885   20.0154 H   0  0  0  0  0  0  0  0  0  0  0  0
   -6.2276   13.1834   24.4560 H   0  0  0  0  0  0  0  0  0  0  0  0
   -4.8592   12.1699   24.0339 H   0  0  0  0  0  0  0  0  0  0  0  0
   -4.5892   13.8069   24.6366 H   0  0  0  0  0  0  0  0  0  0  0  0
  1  2  2  0
  1  6  1  0
  2  3  1  0
  2 11  1  0
  3  4  2  0
  3  7  1  0
  4  5  1  0
  4  9  1  0
  5  6  2  0
  6 20  1  0
  7  8  2  0
  7 10  1  0
  8  9  1  0
  8 21  1  0
  9 14  1  0
 11 22  1  0
 11 23  1  0
 12 13  1  0
 12 16  1  0
 12 17  1  0
 12 24  1  1
 13 14  1  0
 13 18  1  0
 13 25  1  1
 14 15  1  0
 14 26  1  6
 15 16  1  0
 16 19  1  0
 16 27  1  6
 17 28  1  0
 18 29  1  0
 19 30  1  0
 19 31  1  0
 19 32  1  0
M  END
$$$$
