KR2_ref
     RDKit          3D

 55 57  0  0  1  0  0  0  0  0999 V2000
   13.4070   -4.5610   39.3750 C   0  0  0  0  0  0  0  0  0  0  0  0
   12.4310   -5.3330   38.7500 C   0  0  0  0  0  0  0  0  0  0  0  0
   11.7250   -6.2910   39.4730 C   0  0  0  0  0  0  0  0  0  0  0  0
   11.9940   -6.4710   40.8290 C   0  0  0  0  0  0  0  0  0  0  0  0
   12.9690   -5.6990   41.4560 C   0  0  0  0  0  0  0  0  0  0  0  0
   13.6840   -4.7510   40.7280 C   0  0  0  0  0  0  0  0  0  0  0  0
   14.9670   -4.1820   41.3480 C   0  0  0  0  0  0  0  0  0  0  0  0
   15.1880   -2.8390   40.9010 O   0  0  0  0  0  0  0  0  0  0  0  0
   15.9640   -5.1220   40.8130 N   0  0  0  0  0  0  0  0  0  0  0  0
   16.7830   -5.6510   41.9180 C   0  0  0  0  0  0  0  0  0  0  0  0
   18.2930   -5.4360   41.7950 C   0  0  0  0  0  0  0  0  0  0  0  0
   18.6990   -3.9600   41.7940 C   0  0  0  0  0  0  0  0  0  0  0  0
   18.6610   -3.3480   40.3890 C   0  0  0  0  0  0  0  0  0  0  0  0
   17.2500   -3.2110   39.8070 C   0  0  0  0  0  0  0  0  0  0  0  0
   16.5720   -4.5170   39.7590 N   0  0  0  0  0  0  0  0  0  0  0  0
   16.6930   -5.3110   38.7010 C   0  0  0  0  0  0  0  0  0  0  0  0
   16.3930   -6.6350   38.7380 O   0  0  0  0  0  0  0  0  0  0  0  0
   17.2440   -4.7220   37.4050 C   0  0  0  0  0  0  0  0  0  0  0  0
   16.8460   -5.5690   36.1970 C   0  0  2  0  0  0  0  0  0  0  0  0
   17.8140   -5.2360   35.1440 N   0  0  0  0  0  0  0  0  0  0  0  0
   15.5300   -5.1940   35.5240 C   0  0  0  0  0  0  0  0  0  0  0  0
   14.8930   -6.0540   34.6320 C   0  0  0  0  0  0  0  0  0  0  0  0
   15.4270   -7.2860   34.2710 C   0  0  0  0  0  0  0  0  0  0  0  0
   14.9230   -8.0250   33.2050 C   0  0  0  0  0  0  0  0  0  0  0  0
   15.3480   -9.2890   33.0150 F   0  0  0  0  0  0  0  0  0  0  0  0
   13.8810   -7.4910   32.4520 C   0  0  0  0  0  0  0  0  0  0  0  0
   13.5740   -7.9450   31.2210 F   0  0  0  0  0  0  0  0  0  0  0  0
   13.2970   -6.3010   32.8620 C   0  0  0  0  0  0  0  0  0  0  0  0
   13.7710   -5.5900   33.9590 C   0  0  0  0  0  0  0  0  0  0  0  0
   13.1220   -4.4780   34.3460 F   0  0  0  0  0  0  0  0  0  0  0  0
   13.9785   -3.8607   38.7816 H   0  0  0  0  0  0  0  0  0  0  0  0
   12.2470   -5.1974   37.6973 H   0  0  0  0  0  0  0  0  0  0  0  0
   10.9780   -6.8994   38.9850 H   0  0  0  0  0  0  0  0  0  0  0  0
   11.4650   -7.2282   41.3887 H   0  0  0  0  0  0  0  0  0  0  0  0
   13.2562   -5.9015   42.4696 H   0  0  0  0  0  0  0  0  0  0  0  0
   16.5937   -6.7246   41.9461 H   0  0  0  0  0  0  0  0  0  0  0  0
   16.4823   -5.2913   42.9079 H   0  0  0  0  0  0  0  0  0  0  0  0
   18.6959   -5.9568   40.9275 H   0  0  0  0  0  0  0  0  0  0  0  0
   18.7497   -5.8859   42.6730 H   0  0  0  0  0  0  0  0  0  0  0  0
   19.7306   -3.9141   42.1122 H   0  0  0  0  0  0  0  0  0  0  0  0
   18.1217   -3.3745   42.5118 H   0  0  0  0  0  0  0  0  0  0  0  0
   19.2595   -3.9581   39.7211 H   0  0  0  0  0  0  0  0  0  0  0  0
   19.1858   -2.3879   40.3922 H   0  0  0  0  0  0  0  0  0  0  0  0
   17.2535   -2.6635   38.8748 H   0  0  0  0  0  0  0  0  0  0  0  0
   17.1475   -2.4211   40.5412 H   0  0  0  0  0  0  0  0  0  0  0  0
   18.3070   -4.7309   37.6073 H   0  0  0  0  0  0  0  0  0  0  0  0
   16.9247   -3.7000   37.2032 H   0  0  0  0  0  0  0  0  0  0  0  0
   16.9815   -6.6276   36.3840 H   0  0  0  0  0  0  0  0  0  0  0  0
   18.1315   -6.0630   34.6612 H   0  0  0  0  0  0  0  0  0  0  0  0
   17.4013   -4.6161   34.4604 H   0  0  0  0  0  0  0  0  0  0  0  0
   18.6284   -4.7393   35.5177 H   0  0  0  0  0  0  0  0  0  0  0  0
   15.6226   -4.3045   34.9268 H   0  0  0  0  0  0  0  0  0  0  0  0
   14.8048   -4.9685   36.3094 H   0  0  0  0  0  0  0  0  0  0  0  0
   16.2575   -7.7240   34.7934 H   0  0  0  0  0  0  0  0  0  0  0  0
   12.5978   -5.8539   32.1955 H   0  0  0  0  0  0  0  0  0  0  0  0
  1  2  2  0
  1  6  1  0
  1 31  1  0
  2  3  1  0
  2 32  1  0
  3  4  2  0
  3 33  1  0
  4  5  1  0
  4 34  1  0
  5  6  2  0
  5 35  1  0
  6  7  1  0
  7  8  2  0
  7  9  1  0
  9 10  1  0
  9 15  1  0
 10 11  1  0
 10 36  1  0
 10 37  1  0
 11 12  1  0
 11 38  1  0
 11 39  1  0
 12 13  1  0
 12 40  1  0
 12 41  1  0
 13 14  1  0
 13 42  1  0
 13 43  1  0
 14 15  1  0
 14 44  1  0
 14 45  1  0
 15 16  1  0
 16 17  2  0
 16 18  1  0
 18 19  1  0
 18 46  1  0
 18 47  1  0
 19 20  1  0
 19 21  1  0
 19 48  1  1
 20 49  1  0
 20 50  1  0
 20 51  1  0
 21 22  1  0
 21 52  1  0
 21 53  1  0
 22 23  2  0
 22 29  1  0
 23 24  1  0
 23 54  1  0
 24 25  1  0
 24 26  2  0
 26 27  1  0
 26 28  1  0
 28 29  2  0
 28 55  1  0
 29 30  1  0
M  CHG  1  20   1
M  END
$$$$
