3DW_ref
     RDKit          3D

 51 55  0  0  1  0  0  0  0  0999 V2000
  -12.0530  -24.0270   42.9520 O   0  0  0  0  0  0  0  0  0  0  0  0
  -12.7810  -23.1560   42.4370 C   0  0  0  0  0  0  0  0  0  0  0  0
  -13.9770  -22.9960   42.7510 O   0  0  0  0  0  0  0  0  0  0  0  0
  -12.1970  -22.2550   41.3990 C   0  0  0  0  0  0  0  0  0  0  0  0
  -13.0170  -21.2970   40.9000 N   0  0  0  0  0  0  0  0  0  0  0  0
  -12.5890  -20.4340   39.9710 C   0  0  0  0  0  0  0  0  0  0  0  0
  -11.2830  -20.5150   39.5090 C   0  0  0  0  0  0  0  0  0  0  0  0
  -10.5590  -19.7720   38.6120 N   0  0  0  0  0  0  0  0  0  0  0  0
   -9.2980  -20.2600   38.5590 C   0  0  0  0  0  0  0  0  0  0  0  0
  -10.8600  -22.3800   40.9750 C   0  0  0  0  0  0  0  0  0  0  0  0
  -10.4190  -21.4790   40.0080 C   0  0  0  0  0  0  0  0  0  0  0  0
   -9.1870  -21.3290   39.4070 C   0  0  0  0  0  0  0  0  0  0  0  0
   -7.9650  -22.0010   39.5500 C   0  0  0  0  0  0  0  0  0  0  0  0
   -6.8780  -21.5290   38.7710 C   0  0  0  0  0  0  0  0  0  0  0  0
   -7.1010  -20.4310   37.9240 C   0  0  0  0  0  0  0  0  0  0  0  0
   -8.2740  -19.8150   37.8060 N   0  0  0  0  0  0  0  0  0  0  0  0
   -5.5130  -22.1300   38.8360 C   0  0  0  0  0  0  0  0  0  0  0  0
   -5.1490  -22.8800   39.9580 C   0  0  0  0  0  0  0  0  0  0  0  0
   -3.8940  -23.4610   40.0860 C   0  0  0  0  0  0  0  0  0  0  0  0
   -2.9270  -23.2690   39.0960 C   0  0  0  0  0  0  0  0  0  0  0  0
   -3.2750  -22.4920   37.9830 C   0  0  0  0  0  0  0  0  0  0  0  0
   -4.5330  -21.9190   37.8530 C   0  0  0  0  0  0  0  0  0  0  0  0
   -1.7070  -23.8650   39.2440 N   0  0  0  0  0  0  0  0  0  0  0  0
   -0.6370  -23.4860   38.3100 C   0  0  0  0  0  0  0  0  0  0  0  0
    0.6990  -24.0360   38.8230 C   0  0  0  0  0  0  0  0  0  0  0  0
    0.6240  -25.4760   39.1380 N   0  0  0  0  0  0  0  0  0  0  0  0
    1.9230  -25.9660   39.6360 C   0  0  0  0  0  0  0  0  0  0  0  0
   -0.4040  -25.6760   40.1670 C   0  0  0  0  0  0  0  0  0  0  0  0
   -1.7510  -25.2930   39.5750 C   0  0  0  0  0  0  0  0  0  0  0  0
  -13.9624  -21.2304   41.2568 H   0  0  0  0  0  0  0  0  0  0  0  0
  -13.3349  -19.7580   39.5949 H   0  0  0  0  0  0  0  0  0  0  0  0
  -10.9068  -18.9788   38.0848 H   0  0  0  0  0  0  0  0  0  0  0  0
  -10.1939  -23.1339   41.3701 H   0  0  0  0  0  0  0  0  0  0  0  0
   -7.8811  -22.8546   40.2008 H   0  0  0  0  0  0  0  0  0  0  0  0
   -6.3242  -20.0168   37.3041 H   0  0  0  0  0  0  0  0  0  0  0  0
   -5.8380  -23.0333   40.7733 H   0  0  0  0  0  0  0  0  0  0  0  0
   -3.6857  -24.0129   40.9909 H   0  0  0  0  0  0  0  0  0  0  0  0
   -2.5758  -22.3187   37.1793 H   0  0  0  0  0  0  0  0  0  0  0  0
   -4.7362  -21.3446   36.9636 H   0  0  0  0  0  0  0  0  0  0  0  0
   -0.5522  -22.4004   38.2393 H   0  0  0  0  0  0  0  0  0  0  0  0
   -0.8349  -23.8972   37.3183 H   0  0  0  0  0  0  0  0  0  0  0  0
    1.0399  -23.5065   39.7165 H   0  0  0  0  0  0  0  0  0  0  0  0
    1.4668  -23.9295   38.0543 H   0  0  0  0  0  0  0  0  0  0  0  0
    0.3604  -25.9884   38.3075 H   0  0  0  0  0  0  0  0  0  0  0  0
    1.8242  -27.0360   39.8279 H   0  0  0  0  0  0  0  0  0  0  0  0
    2.6624  -25.7998   38.8507 H   0  0  0  0  0  0  0  0  0  0  0  0
    2.1904  -25.4269   40.5487 H   0  0  0  0  0  0  0  0  0  0  0  0
   -0.1490  -25.0974   41.0584 H   0  0  0  0  0  0  0  0  0  0  0  0
   -0.3985  -26.7354   40.4319 H   0  0  0  0  0  0  0  0  0  0  0  0
   -1.9499  -25.8745   38.6722 H   0  0  0  0  0  0  0  0  0  0  0  0
   -2.5196  -25.5650   40.2973 H   0  0  0  0  0  0  0  0  0  0  0  0
  1  2  1  0
  2  3  2  0
  2  4  1  0
  4  5  2  0
  4 10  1  0
  5  6  1  0
  5 30  1  0
  6  7  2  0
  6 31  1  0
  7  8  1  0
  7 11  1  0
  8  9  1  0
  8 32  1  0
  9 12  2  0
  9 16  1  0
 10 11  2  0
 10 33  1  0
 11 12  1  0
 12 13  1  0
 13 14  2  0
 13 34  1  0
 14 15  1  0
 14 17  1  0
 15 16  2  0
 15 35  1  0
 17 18  2  0
 17 22  1  0
 18 19  1  0
 18 36  1  0
 19 20  2  0
 19 37  1  0
 20 21  1  0
 20 23  1  0
 21 22  2  0
 21 38  1  0
 22 39  1  0
 23 24  1  0
 23 29  1  0
 24 25  1  0
 24 40  1  0
 24 41  1  0
 25 26  1  0
 25 42  1  0
 25 43  1  0
 26 27  1  0
 26 28  1  0
 26 44  1  0
 27 45  1  0
 27 46  1  0
 27 47  1  0
 28 29  1  0
 28 48  1  0
 28 49  1  0
 29 50  1  0
 29 51  1  0
M  CHG  3   1  -1   5   1  26   1
M  END
$$$$
