P1E_ref
     RDKit          3D

 57 59  0  0  1  0  0  0  0  0999 V2000
   16.9110  -10.3060    1.1380 C   0  0  0  0  0  0  0  0  0  0  0  0
   18.8950  -10.7860    2.4290 C   0  0  0  0  0  0  0  0  0  0  0  0
   14.6980   -9.5710    2.0190 C   0  0  0  0  0  0  0  0  0  0  0  0
   12.5790   -8.7150    2.4970 C   0  0  0  0  0  0  0  0  0  0  0  0
   12.2010   -7.7260    5.7620 F   0  0  0  0  0  0  0  0  0  0  0  0
   11.7480   -8.6460    4.8470 C   0  0  0  0  0  0  0  0  0  0  0  0
   10.7250   -7.9740    4.2090 F   0  0  0  0  0  0  0  0  0  0  0  0
   11.3180   -9.8180    5.4780 F   0  0  0  0  0  0  0  0  0  0  0  0
   12.8050   -8.9840    3.8250 C   0  0  0  0  0  0  0  0  0  0  0  0
   13.5630   -9.0200    1.6430 N   0  0  0  0  0  0  0  0  0  0  0  0
   14.0260   -9.5520    4.2190 C   0  0  0  0  0  0  0  0  0  0  0  0
   14.2920   -9.8180    5.5540 N   0  0  0  0  0  0  0  0  0  0  0  0
   15.5940  -10.3650    5.9030 C   0  0  2  0  0  0  0  0  0  0  0  0
   15.5630  -11.9050    5.7560 C   0  0  0  0  0  0  0  0  0  0  0  0
   15.7660  -12.4540    7.1820 C   0  0  0  0  0  0  0  0  0  0  0  0
   16.3970  -11.3130    8.0170 C   0  0  0  0  0  0  0  0  0  0  0  0
   15.9710   -9.9870    7.3760 C   0  0  1  0  0  0  0  0  0  0  0  0
   17.1250   -9.0630    7.4200 N   0  0  0  0  0  0  0  0  0  0  0  0
   17.4810   -8.6910    8.8030 C   0  0  0  0  0  0  0  0  0  0  0  0
   16.7650   -7.7880    6.7900 C   0  0  0  0  0  0  0  0  0  0  0  0
   14.9340   -9.8600    3.2990 N   0  0  0  0  0  0  0  0  0  0  0  0
   15.6110   -9.8330    1.0280 N   0  0  0  0  0  0  0  0  0  0  0  0
   17.5890  -10.3440    2.3740 C   0  0  0  0  0  0  0  0  0  0  0  0
   17.5600  -10.6950   -0.0500 C   0  0  0  0  0  0  0  0  0  0  0  0
   18.8740  -11.1500    0.0340 C   0  0  0  0  0  0  0  0  0  0  0  0
   19.5570  -11.1970    1.2570 C   0  0  0  0  0  0  0  0  0  0  0  0
   21.2710  -11.7650    1.3980 S   0  0  0  0  0  0  0  0  0  0  0  0
   21.2630  -13.0550    2.0400 O   0  0  0  0  0  0  0  0  0  0  0  0
   21.9290  -11.4690    0.1760 O   0  0  0  0  0  0  0  0  0  0  0  0
   21.8560  -10.6820    2.5200 N   0  0  0  0  0  0  0  0  0  0  0  0
   22.0240   -9.2280    2.2960 C   0  0  0  0  0  0  0  0  0  0  0  0
   19.3974  -10.8039    3.3850 H   0  0  0  0  0  0  0  0  0  0  0  0
   11.7058   -8.2210    2.1178 H   0  0  0  0  0  0  0  0  0  0  0  0
   13.6533   -9.5211    6.2788 H   0  0  0  0  0  0  0  0  0  0  0  0
   16.3884  -10.0130    5.2479 H   0  0  0  0  0  0  0  0  0  0  0  0
   16.3733  -12.2344    5.1037 H   0  0  0  0  0  0  0  0  0  0  0  0
   14.6365  -12.2896    5.3279 H   0  0  0  0  0  0  0  0  0  0  0  0
   16.3649  -13.3666    7.1967 H   0  0  0  0  0  0  0  0  0  0  0  0
   14.7993  -12.7031    7.6147 H   0  0  0  0  0  0  0  0  0  0  0  0
   17.4760  -11.4717    7.9411 H   0  0  0  0  0  0  0  0  0  0  0  0
   16.1389  -11.3744    9.0753 H   0  0  0  0  0  0  0  0  0  0  0  0
   15.1278   -9.5445    7.9102 H   0  0  0  0  0  0  0  0  0  0  0  0
   17.9249   -9.4724    6.9544 H   0  0  0  0  0  0  0  0  0  0  0  0
   18.3195   -7.9909    8.7736 H   0  0  0  0  0  0  0  0  0  0  0  0
   16.6181   -8.2523    9.3114 H   0  0  0  0  0  0  0  0  0  0  0  0
   17.8150   -9.5869    9.3258 H   0  0  0  0  0  0  0  0  0  0  0  0
   17.6121   -7.1019    6.8631 H   0  0  0  0  0  0  0  0  0  0  0  0
   16.5718   -7.9584    5.7349 H   0  0  0  0  0  0  0  0  0  0  0  0
   15.8796   -7.3646    7.2722 H   0  0  0  0  0  0  0  0  0  0  0  0
   15.3104   -9.6109    0.0901 H   0  0  0  0  0  0  0  0  0  0  0  0
   17.2090   -9.9852    3.3065 H   0  0  0  0  0  0  0  0  0  0  0  0
   17.0584  -10.6558   -1.0065 H   0  0  0  0  0  0  0  0  0  0  0  0
   19.3784  -11.4610   -0.8697 H   0  0  0  0  0  0  0  0  0  0  0  0
   21.7776  -10.9683    3.5017 H   0  0  0  0  0  0  0  0  0  0  0  0
   22.4249   -8.7639    3.1947 H   0  0  0  0  0  0  0  0  0  0  0  0
   22.6887   -9.0411    1.4520 H   0  0  0  0  0  0  0  0  0  0  0  0
   21.0286   -8.8604    2.1105 H   0  0  0  0  0  0  0  0  0  0  0  0
  1 22  1  0
  1 23  1  0
  1 24  2  0
  2 23  2  0
  2 26  1  0
  2 32  1  0
  3 10  2  0
  3 21  1  0
  3 22  1  0
  4  9  2  0
  4 10  1  0
  4 33  1  0
  5  6  1  0
  6  7  1  0
  6  8  1  0
  6  9  1  0
  9 11  1  0
 11 12  1  0
 11 21  2  0
 12 13  1  0
 12 34  1  0
 13 14  1  0
 13 17  1  0
 13 35  1  6
 14 15  1  0
 14 36  1  0
 14 37  1  0
 15 16  1  0
 15 38  1  0
 15 39  1  0
 16 17  1  0
 16 40  1  0
 16 41  1  0
 17 18  1  0
 17 42  1  1
 18 19  1  0
 18 20  1  0
 18 43  1  0
 19 44  1  0
 19 45  1  0
 19 46  1  0
 20 47  1  0
 20 48  1  0
 20 49  1  0
 22 50  1  0
 23 51  1  0
 24 25  1  0
 24 52  1  0
 25 26  2  0
 25 53  1  0
 26 27  1  0
 27 28  2  0
 27 29  2  0
 27 30  1  0
 30 31  1  0
 30 54  1  0
 31 55  1  0
 31 56  1  0
 31 57  1  0
M  CHG  1  18   1
M  END
$$$$
