9F9_ref
     RDKit          3D

 55 58  0  0  1  0  0  0  0  0999 V2000
  -29.2420   46.4750    0.5810 C   0  0  0  0  0  0  0  0  0  0  0  0
  -28.1990   45.7450    1.2440 O   0  0  0  0  0  0  0  0  0  0  0  0
  -28.1840   44.3860    1.0780 C   0  0  0  0  0  0  0  0  0  0  0  0
  -29.0530   43.7380    0.2080 C   0  0  0  0  0  0  0  0  0  0  0  0
  -28.9840   42.3620    0.0790 C   0  0  0  0  0  0  0  0  0  0  0  0
  -28.0820   41.6380    0.8240 C   0  0  0  0  0  0  0  0  0  0  0  0
  -27.2220   42.2720    1.6970 C   0  0  0  0  0  0  0  0  0  0  0  0
  -27.2730   43.6650    1.8630 C   0  0  0  0  0  0  0  0  0  0  0  0
  -26.2520   44.2090    2.8210 C   0  0  0  0  0  0  0  0  0  0  0  0
  -25.5750   43.4610    3.5200 O   0  0  0  0  0  0  0  0  0  0  0  0
  -26.0770   45.5540    2.8190 N   0  0  0  0  0  0  0  0  0  0  0  0
  -25.1240   46.3580    3.5080 C   0  0  0  0  0  0  0  0  0  0  0  0
  -24.4600   45.8500    4.6280 C   0  0  0  0  0  0  0  0  0  0  0  0
  -23.4960   46.6300    5.2460 C   0  0  0  0  0  0  0  0  0  0  0  0
  -22.6960   46.4240    6.3590 N   0  0  0  0  0  0  0  0  0  0  0  0
  -22.6800   45.2290    7.2060 C   0  0  0  0  0  0  0  0  0  0  0  0
  -21.8880   47.5260    6.5560 C   0  0  0  0  0  0  0  0  0  0  0  0
  -21.0600   47.6730    7.4440 O   0  0  0  0  0  0  0  0  0  0  0  0
  -22.2020   48.4230    5.5570 N   0  0  0  0  0  0  0  0  0  0  0  0
  -21.5560   49.7410    5.4010 C   0  0  0  0  0  0  0  0  0  0  0  0
  -23.1930   47.8860    4.7420 C   0  0  0  0  0  0  0  0  0  0  0  0
  -23.8540   48.3620    3.6330 C   0  0  0  0  0  0  0  0  0  0  0  0
  -24.8410   47.6150    2.9460 C   0  0  0  0  0  0  0  0  0  0  0  0
  -25.4470   48.0850    1.7910 N   0  0  0  0  0  0  0  0  0  0  0  0
  -24.9160   47.4630    0.5710 C   0  0  0  0  0  0  0  0  0  0  0  0
  -25.7980   47.6950   -0.6330 C   0  0  0  0  0  0  0  0  0  0  0  0
  -26.1470   49.1710   -0.7620 C   0  0  0  0  0  0  0  0  0  0  0  0
  -26.7380   49.6940    0.5220 C   0  0  0  0  0  0  0  0  0  0  0  0
  -25.7870   49.5000    1.6620 C   0  0  0  0  0  0  0  0  0  0  0  0
  -29.1793   47.5243    0.8638 H   0  0  0  0  0  0  0  0  0  0  0  0
  -29.1448   46.4302   -0.5048 H   0  0  0  0  0  0  0  0  0  0  0  0
  -30.2344   46.1296    0.8763 H   0  0  0  0  0  0  0  0  0  0  0  0
  -29.7814   44.2570   -0.3950 H   0  0  0  0  0  0  0  0  0  0  0  0
  -29.6542   41.8514   -0.5968 H   0  0  0  0  0  0  0  0  0  0  0  0
  -28.0458   40.5633    0.7222 H   0  0  0  0  0  0  0  0  0  0  0  0
  -26.5347   41.6452    2.2479 H   0  0  0  0  0  0  0  0  0  0  0  0
  -26.6648   46.0651    2.1729 H   0  0  0  0  0  0  0  0  0  0  0  0
  -24.6872   44.8951    5.0697 H   0  0  0  0  0  0  0  0  0  0  0  0
  -21.8093   45.2093    7.8612 H   0  0  0  0  0  0  0  0  0  0  0  0
  -23.5727   45.1926    7.8290 H   0  0  0  0  0  0  0  0  0  0  0  0
  -22.6531   44.3312    6.5884 H   0  0  0  0  0  0  0  0  0  0  0  0
  -22.0286   50.3229    4.6130 H   0  0  0  0  0  0  0  0  0  0  0  0
  -21.6200   50.3140    6.3264 H   0  0  0  0  0  0  0  0  0  0  0  0
  -20.5027   49.6167    5.1483 H   0  0  0  0  0  0  0  0  0  0  0  0
  -23.5951   49.3344    3.2563 H   0  0  0  0  0  0  0  0  0  0  0  0
  -24.8094   46.3860    0.7056 H   0  0  0  0  0  0  0  0  0  0  0  0
  -23.9124   47.8515    0.3867 H   0  0  0  0  0  0  0  0  0  0  0  0
  -26.6917   47.0747   -0.5707 H   0  0  0  0  0  0  0  0  0  0  0  0
  -25.2811   47.3582   -1.5322 H   0  0  0  0  0  0  0  0  0  0  0  0
  -26.8511   49.3151   -1.5816 H   0  0  0  0  0  0  0  0  0  0  0  0
  -25.2532   49.7385   -1.0206 H   0  0  0  0  0  0  0  0  0  0  0  0
  -27.7119   49.2585    0.7442 H   0  0  0  0  0  0  0  0  0  0  0  0
  -26.9197   50.7584    0.3969 H   0  0  0  0  0  0  0  0  0  0  0  0
  -24.8817   50.0906    1.5168 H   0  0  0  0  0  0  0  0  0  0  0  0
  -26.2586   49.8438    2.5840 H   0  0  0  0  0  0  0  0  0  0  0  0
  1  2  1  0
  1 30  1  0
  1 31  1  0
  1 32  1  0
  2  3  1  0
  3  4  2  0
  3  8  1  0
  4  5  1  0
  4 33  1  0
  5  6  2  0
  5 34  1  0
  6  7  1  0
  6 35  1  0
  7  8  2  0
  7 36  1  0
  8  9  1  0
  9 10  2  0
  9 11  1  0
 11 12  1  0
 11 37  1  0
 12 13  2  0
 12 23  1  0
 13 14  1  0
 13 38  1  0
 14 15  1  0
 14 21  2  0
 15 16  1  0
 15 17  1  0
 16 39  1  0
 16 40  1  0
 16 41  1  0
 17 18  2  0
 17 19  1  0
 19 20  1  0
 19 21  1  0
 20 42  1  0
 20 43  1  0
 20 44  1  0
 21 22  1  0
 22 23  2  0
 22 45  1  0
 23 24  1  0
 24 25  1  0
 24 29  1  0
 25 26  1  0
 25 46  1  0
 25 47  1  0
 26 27  1  0
 26 48  1  0
 26 49  1  0
 27 28  1  0
 27 50  1  0
 27 51  1  0
 28 29  1  0
 28 52  1  0
 28 53  1  0
 29 54  1  0
 29 55  1  0
M  END
$$$$
