VX2_ref
     RDKit          3D

 44 47  0  0  1  0  0  0  0  0999 V2000
  -21.5640   39.2750   -0.8230 C   0  0  0  0  0  0  0  0  0  0  0  0
  -16.2310   34.6350    0.9100 N   0  0  0  0  0  0  0  0  0  0  0  0
  -20.6710   39.3180    1.6790 C   0  0  0  0  0  0  0  0  0  0  0  0
  -19.7840   38.8080    2.7170 C   0  0  0  0  0  0  0  0  0  0  0  0
  -18.8380   37.7400    2.4120 C   0  0  0  0  0  0  0  0  0  0  0  0
  -16.3130   34.7450   -0.4160 C   0  0  0  0  0  0  0  0  0  0  0  0
  -15.6650   34.1930   -1.5590 C   0  0  0  0  0  0  0  0  0  0  0  0
  -17.1340   35.6220   -3.0730 C   0  0  0  0  0  0  0  0  0  0  0  0
  -18.7260   36.7960   -4.5320 C   0  0  0  0  0  0  0  0  0  0  0  0
  -20.6350   38.7610    0.3000 C   0  0  0  0  0  0  0  0  0  0  0  0
  -19.6690   37.6890    0.0450 C   0  0  0  0  0  0  0  0  0  0  0  0
  -16.0860   34.6410   -2.8710 C   0  0  0  0  0  0  0  0  0  0  0  0
  -19.4950   39.1950   -4.7490 C   0  0  0  0  0  0  0  0  0  0  0  0
  -17.0520   35.4020    1.6060 N   0  0  0  0  0  0  0  0  0  0  0  0
  -22.8460   39.1240   -0.4020 F   0  0  0  0  0  0  0  0  0  0  0  0
  -21.4520   38.5530   -1.9700 F   0  0  0  0  0  0  0  0  0  0  0  0
  -21.2250   40.5650   -1.0910 F   0  0  0  0  0  0  0  0  0  0  0  0
  -18.7630   37.1610    1.0590 C   0  0  0  0  0  0  0  0  0  0  0  0
  -17.7620   36.1100    0.6880 C   0  0  0  0  0  0  0  0  0  0  0  0
  -17.5350   36.0030   -4.3410 N   0  0  0  0  0  0  0  0  0  0  0  0
  -18.3410   38.2660   -4.4010 C   0  0  0  0  0  0  0  0  0  0  0  0
  -20.1000   38.8660   -6.1070 C   0  0  0  0  0  0  0  0  0  0  0  0
  -20.5320   37.4090   -6.2070 C   0  0  0  0  0  0  0  0  0  0  0  0
  -19.3900   36.4560   -5.8840 C   0  0  0  0  0  0  0  0  0  0  0  0
  -17.7050   36.1100   -1.9040 N   0  0  0  0  0  0  0  0  0  0  0  0
  -17.3310   35.7150   -0.5950 N   0  0  0  0  0  0  0  0  0  0  0  0
  -21.3695   40.1059    1.9153 H   0  0  0  0  0  0  0  0  0  0  0  0
  -19.8224   39.1829    3.7218 H   0  0  0  0  0  0  0  0  0  0  0  0
  -18.1791   37.3834    3.1898 H   0  0  0  0  0  0  0  0  0  0  0  0
  -14.8662   33.4747   -1.4528 H   0  0  0  0  0  0  0  0  0  0  0  0
  -19.4336   36.5659   -3.7326 H   0  0  0  0  0  0  0  0  0  0  0  0
  -19.6451   37.2786   -0.9503 H   0  0  0  0  0  0  0  0  0  0  0  0
  -15.5834   34.2380   -3.7360 H   0  0  0  0  0  0  0  0  0  0  0  0
  -19.1513   40.2305   -4.7400 H   0  0  0  0  0  0  0  0  0  0  0  0
  -20.2672   39.1294   -3.9857 H   0  0  0  0  0  0  0  0  0  0  0  0
  -16.8785   35.9201   -5.1030 H   0  0  0  0  0  0  0  0  0  0  0  0
  -17.4973   38.4971   -5.0558 H   0  0  0  0  0  0  0  0  0  0  0  0
  -18.0025   38.4862   -3.3871 H   0  0  0  0  0  0  0  0  0  0  0  0
  -19.3757   39.0762   -6.8941 H   0  0  0  0  0  0  0  0  0  0  0  0
  -20.9510   39.5204   -6.3005 H   0  0  0  0  0  0  0  0  0  0  0  0
  -20.9209   37.2097   -7.2054 H   0  0  0  0  0  0  0  0  0  0  0  0
  -21.3408   37.2375   -5.5069 H   0  0  0  0  0  0  0  0  0  0  0  0
  -19.7657   35.4340   -5.8597 H   0  0  0  0  0  0  0  0  0  0  0  0
  -18.6523   36.4938   -6.6881 H   0  0  0  0  0  0  0  0  0  0  0  0
  1 10  1  0
  1 15  1  0
  1 16  1  0
  1 17  1  0
  2  6  2  0
  2 14  1  0
  3  4  2  0
  3 10  1  0
  3 27  1  0
  4  5  1  0
  4 28  1  0
  5 18  2  0
  5 29  1  0
  6  7  1  0
  6 26  1  0
  7 12  2  0
  7 30  1  0
  8 12  1  0
  8 20  1  0
  8 25  2  0
  9 20  1  0
  9 21  1  0
  9 24  1  0
  9 31  1  0
 10 11  2  0
 11 18  1  0
 11 32  1  0
 12 33  1  0
 13 21  1  0
 13 22  1  0
 13 34  1  0
 13 35  1  0
 14 19  2  0
 18 19  1  0
 19 26  1  0
 20 36  1  0
 21 37  1  0
 21 38  1  0
 22 23  1  0
 22 39  1  0
 22 40  1  0
 23 24  1  0
 23 41  1  0
 23 42  1  0
 24 43  1  0
 24 44  1  0
 25 26  1  0
M  END
$$$$
