14
  PyMOL2.4          3D                             0

 27 28  0  0  0  0  0  0  0  0999 V2000
   55.3700   38.7001   58.6962 C   0  0  0  0  0  0  0  0  0  0  0  0
   55.3367   39.0226   60.0675 C   0  0  0  0  0  0  0  0  0  0  0  0
   54.2734   38.5299   60.8444 C   0  0  0  0  0  0  0  0  0  0  0  0
   53.2115   37.8289   60.2398 C   0  0  0  0  0  0  0  0  0  0  0  0
   53.2203   37.5901   58.8539 C   0  0  0  0  0  0  0  0  0  0  0  0
   54.3208   37.9936   58.0853 C   0  0  0  0  0  0  0  0  0  0  0  0
   52.1542   37.3927   61.0373 N   0  0  0  0  0  0  0  0  0  0  0  0
   52.4228   36.2545   61.9044 C   0  0  0  0  0  0  0  0  0  0  0  0
   51.4358   36.2743   63.0832 C   0  0  0  0  0  0  0  0  0  0  0  0
   50.0253   36.4237   62.6417 N   0  3  0  0  0  0  0  0  0  0  0  0
   49.7933   37.5097   61.6640 C   0  0  0  0  0  0  0  0  0  0  0  0
   50.7999   37.4570   60.4980 C   0  0  0  0  0  0  0  0  0  0  0  0
   56.5680   39.9867   60.8000 Cl  0  0  0  0  0  0  0  0  0  0  0  0
   56.7168   38.6784   57.8459 Cl  0  0  0  0  0  0  0  0  0  0  0  0
   54.2411   38.7437   61.8980 H   0  0  0  0  0  0  0  0  0  0  0  0
   52.4608   36.9687   58.4117 H   0  0  0  0  0  0  0  0  0  0  0  0
   54.3457   37.7636   57.0247 H   0  0  0  0  0  0  0  0  0  0  0  0
   52.2842   35.3580   61.3008 H   0  0  0  0  0  0  0  0  0  0  0  0
   53.4498   36.2251   62.2835 H   0  0  0  0  0  0  0  0  0  0  0  0
   51.6944   37.1067   63.7402 H   0  0  0  0  0  0  0  0  0  0  0  0
   51.5276   35.3604   63.6687 H   0  0  0  0  0  0  0  0  0  0  0  0
   49.4252   36.5441   63.4527 H   0  0  0  0  0  0  0  0  0  0  0  0
   49.8881   38.4601   62.1838 H   0  0  0  0  0  0  0  0  0  0  0  0
   48.7604   37.4592   61.3182 H   0  0  0  0  0  0  0  0  0  0  0  0
   50.6719   38.3496   59.8812 H   0  0  0  0  0  0  0  0  0  0  0  0
   50.6249   36.5846   59.8638 H   0  0  0  0  0  0  0  0  0  0  0  0
   49.7263   35.5726   62.1521 H   0  0  0  0  0  0  0  0  0  0  0  0
  1  2  2  0  0  0  0
  1  6  1  0  0  0  0
  1 14  1  0  0  0  0
  2  3  1  0  0  0  0
  2 13  1  0  0  0  0
  3  4  2  0  0  0  0
  3 15  1  0  0  0  0
  4  5  1  0  0  0  0
  4  7  1  0  0  0  0
  5  6  2  0  0  0  0
  5 16  1  0  0  0  0
  6 17  1  0  0  0  0
  7  8  1  0  0  0  0
  7 12  1  0  0  0  0
  8  9  1  0  0  0  0
  8 18  1  0  0  0  0
  8 19  1  0  0  0  0
  9 10  1  0  0  0  0
  9 20  1  0  0  0  0
  9 21  1  0  0  0  0
 10 11  1  0  0  0  0
 10 22  1  0  0  0  0
 10 27  1  0  0  0  0
 11 12  1  0  0  0  0
 11 23  1  0  0  0  0
 11 24  1  0  0  0  0
 12 25  1  0  0  0  0
 12 26  1  0  0  0  0
M  END
$$$$
