1b
  PyMOL2.4          3D                             0

 60 63  0  0  0  0  0  0  0  0999 V2000
   44.5660   61.4650   63.4000 N   0  0  0  0  0  0  0  0  0  0  0  0
   44.5960   59.4940   65.5030 S   0  0  0  0  0  0  0  0  0  0  0  0
   44.1500   62.8770   63.3970 C   0  0  0  0  0  0  0  0  0  0  0  0
   44.4450   62.0580   65.5480 N   0  3  0  0  0  0  0  0  0  0  0  0
   46.3870   63.3280   68.0540 S   0  0  0  0  0  0  0  0  0  0  0  0
   46.6760   61.1230   69.4710 N   0  3  0  0  0  0  0  0  0  0  0  0
   44.5460   61.0120   64.6680 C   0  0  0  0  0  0  0  0  0  0  0  0
   48.4780   61.6510   68.0320 N   0  0  0  0  0  0  0  0  0  0  0  0
   44.4770   60.3270   67.0430 C   0  0  0  0  0  0  0  0  0  0  0  0
   44.5440   63.3070   64.8240 C   0  0  0  0  0  0  0  0  0  0  0  0
   44.4900   61.7160   66.8940 C   0  0  0  0  0  0  0  0  0  0  0  0
   44.6410   62.8110   67.9250 C   0  0  0  0  0  0  0  0  0  0  0  0
   47.2500   61.8750   68.5190 C   0  0  0  0  0  0  0  0  0  0  0  0
   47.0980   59.8670   70.1260 C   0  0  0  0  0  0  0  0  0  0  0  0
   48.2440   60.1040   71.1340 C   0  0  0  0  0  0  0  0  0  0  0  0
   48.6520   58.8020   71.8440 C   0  0  0  0  0  0  0  0  0  0  0  0
   48.9940   57.6810   70.8430 C   0  0  0  0  0  0  0  0  0  0  0  0
   47.8390   57.4280   69.8540 C   0  0  0  0  0  0  0  0  0  0  0  0
   47.3780   58.7110   69.1290 C   0  0  0  0  0  0  0  0  0  0  0  0
   49.0000   61.8450   66.6630 C   0  0  0  0  0  0  0  0  0  0  0  0
   47.9760   61.4930   65.5660 C   0  0  0  0  0  0  0  0  0  0  0  0
   48.5690   61.6800   64.1580 C   0  0  0  0  0  0  0  0  0  0  0  0
   49.2030   63.0680   63.9550 C   0  0  0  0  0  0  0  0  0  0  0  0
   50.2380   63.3920   65.0490 C   0  0  0  0  0  0  0  0  0  0  0  0
   49.6610   63.2290   66.4700 C   0  0  0  0  0  0  0  0  0  0  0  0
   45.3340   61.6510   69.9500 C   0  0  0  0  0  0  0  0  0  0  0  0
   44.8400   60.8480   62.6480 H   0  0  0  0  0  0  0  0  0  0  0  0
   43.0660   62.9290   63.2950 H   0  0  0  0  0  0  0  0  0  0  0  0
   44.7560   63.4270   62.6780 H   0  0  0  0  0  0  0  0  0  0  0  0
   49.2050   61.2970   68.6380 H   0  0  0  0  0  0  0  0  0  0  0  0
   44.4000   59.8900   68.0280 H   0  0  0  0  0  0  0  0  0  0  0  0
   43.7980   64.0030   65.2070 H   0  0  0  0  0  0  0  0  0  0  0  0
   45.5820   63.6400   64.8240 H   0  0  0  0  0  0  0  0  0  0  0  0
   44.0290   63.6670   67.6390 H   0  0  0  0  0  0  0  0  0  0  0  0
   44.2980   62.4480   68.8940 H   0  0  0  0  0  0  0  0  0  0  0  0
   46.2440   59.5430   70.7210 H   0  0  0  0  0  0  0  0  0  0  0  0
   47.9290   60.8380   71.8760 H   0  0  0  0  0  0  0  0  0  0  0  0
   49.1070   60.5170   70.6110 H   0  0  0  0  0  0  0  0  0  0  0  0
   47.8410   58.4730   72.4930 H   0  0  0  0  0  0  0  0  0  0  0  0
   49.5140   58.9920   72.4830 H   0  0  0  0  0  0  0  0  0  0  0  0
   49.2130   56.7620   71.3870 H   0  0  0  0  0  0  0  0  0  0  0  0
   49.8930   57.9510   70.2890 H   0  0  0  0  0  0  0  0  0  0  0  0
   46.9950   56.9900   70.3870 H   0  0  0  0  0  0  0  0  0  0  0  0
   48.1490   56.6870   69.1170 H   0  0  0  0  0  0  0  0  0  0  0  0
   48.1440   59.0230   68.4190 H   0  0  0  0  0  0  0  0  0  0  0  0
   46.4740   58.5000   68.5560 H   0  0  0  0  0  0  0  0  0  0  0  0
   49.8060   61.1190   66.5530 H   0  0  0  0  0  0  0  0  0  0  0  0
   47.0950   62.1270   65.6750 H   0  0  0  0  0  0  0  0  0  0  0  0
   47.6520   60.4600   65.6890 H   0  0  0  0  0  0  0  0  0  0  0  0
   47.7890   61.5260   63.4130 H   0  0  0  0  0  0  0  0  0  0  0  0
   49.3180   60.9100   63.9760 H   0  0  0  0  0  0  0  0  0  0  0  0
   48.4220   63.8280   63.9580 H   0  0  0  0  0  0  0  0  0  0  0  0
   49.6840   63.1070   62.9770 H   0  0  0  0  0  0  0  0  0  0  0  0
   50.5960   64.4130   64.9180 H   0  0  0  0  0  0  0  0  0  0  0  0
   51.1050   62.7410   64.9330 H   0  0  0  0  0  0  0  0  0  0  0  0
   50.4580   63.3550   67.2020 H   0  0  0  0  0  0  0  0  0  0  0  0
   48.9250   64.0110   66.6550 H   0  0  0  0  0  0  0  0  0  0  0  0
   44.9360   60.9890   70.7190 H   0  0  0  0  0  0  0  0  0  0  0  0
   45.4630   62.6510   70.3640 H   0  0  0  0  0  0  0  0  0  0  0  0
   44.6390   61.6920   69.1110 H   0  0  0  0  0  0  0  0  0  0  0  0
  1  3  1  0  0  0  0
  1  7  1  0  0  0  0
  1 27  1  0  0  0  0
  2  7  1  0  0  0  0
  2  9  1  0  0  0  0
  3 10  1  0  0  0  0
  3 28  1  0  0  0  0
  3 29  1  0  0  0  0
  4  7  2  0  0  0  0
  4 10  1  0  0  0  0
  4 11  1  0  0  0  0
  5 12  1  0  0  0  0
  5 13  1  0  0  0  0
  6 13  2  0  0  0  0
  6 14  1  0  0  0  0
  6 26  1  0  0  0  0
  8 13  1  0  0  0  0
  8 20  1  0  0  0  0
  8 30  1  0  0  0  0
  9 11  2  0  0  0  0
  9 31  1  0  0  0  0
 10 32  1  0  0  0  0
 10 33  1  0  0  0  0
 11 12  1  0  0  0  0
 12 34  1  0  0  0  0
 12 35  1  0  0  0  0
 14 15  1  0  0  0  0
 14 19  1  0  0  0  0
 14 36  1  0  0  0  0
 15 16  1  0  0  0  0
 15 37  1  0  0  0  0
 15 38  1  0  0  0  0
 16 17  1  0  0  0  0
 16 39  1  0  0  0  0
 16 40  1  0  0  0  0
 17 18  1  0  0  0  0
 17 41  1  0  0  0  0
 17 42  1  0  0  0  0
 18 19  1  0  0  0  0
 18 43  1  0  0  0  0
 18 44  1  0  0  0  0
 19 45  1  0  0  0  0
 19 46  1  0  0  0  0
 20 21  1  0  0  0  0
 20 25  1  0  0  0  0
 20 47  1  0  0  0  0
 21 22  1  0  0  0  0
 21 48  1  0  0  0  0
 21 49  1  0  0  0  0
 22 23  1  0  0  0  0
 22 50  1  0  0  0  0
 22 51  1  0  0  0  0
 23 24  1  0  0  0  0
 23 52  1  0  0  0  0
 23 53  1  0  0  0  0
 24 25  1  0  0  0  0
 24 54  1  0  0  0  0
 24 55  1  0  0  0  0
 25 56  1  0  0  0  0
 25 57  1  0  0  0  0
 26 58  1  0  0  0  0
 26 59  1  0  0  0  0
 26 60  1  0  0  0  0
M  END
$$$$
