GGY_ref
     RDKit          3D

 60 62  0  0  1  0  0  0  0  0999 V2000
    0.7340  -10.6350   16.2100 C   0  0  0  0  0  0  0  0  0  0  0  0
    1.6380  -10.3860   15.0640 C   0  0  2  0  0  0  0  0  0  0  0  0
    2.2870  -11.6990   14.6490 C   0  0  0  0  0  0  0  0  0  0  0  0
    1.6540  -12.5230   13.7680 C   0  0  0  0  0  0  0  0  0  0  0  0
    0.3350  -12.1410   13.2160 C   0  0  0  0  0  0  0  0  0  0  0  0
   -0.1130  -13.1120   12.3990 F   0  0  0  0  0  0  0  0  0  0  0  0
    0.4550  -10.9920   12.5220 F   0  0  0  0  0  0  0  0  0  0  0  0
   -0.5310  -11.9680   14.2160 F   0  0  0  0  0  0  0  0  0  0  0  0
    2.5890   -9.4410   15.4250 O   0  0  0  0  0  0  0  0  0  0  0  0
    3.3560   -8.7970   14.4370 C   0  0  0  0  0  0  0  0  0  0  0  0
    2.7760   -8.5050   13.2090 C   0  0  0  0  0  0  0  0  0  0  0  0
    3.5100   -7.8720   12.2230 C   0  0  0  0  0  0  0  0  0  0  0  0
    2.8500   -7.5530   10.8590 C   0  0  0  0  0  0  0  0  0  0  0  0
    2.2010   -8.5770   10.1440 C   0  0  0  0  0  0  0  0  0  0  0  0
    1.6030   -8.2640    8.8960 C   0  0  0  0  0  0  0  0  0  0  0  0
    0.9050   -9.3170    8.1060 C   0  0  0  0  0  0  0  0  0  0  0  0
    0.3080   -9.1760    6.8140 C   0  0  0  0  0  0  0  0  0  0  0  0
   -0.3080  -10.3960    6.2870 C   0  0  0  0  0  0  0  0  0  0  0  0
   -1.0060  -10.4710    4.9190 C   0  0  0  0  0  0  0  0  0  0  0  0
   -1.5860   -9.2340    4.3820 N   0  0  0  0  0  0  0  0  0  0  0  0
   -1.6680   -9.3120    2.9340 C   0  0  0  0  0  0  0  0  0  0  0  0
   -2.9570   -9.0320    4.9470 C   0  0  0  0  0  0  0  0  0  0  0  0
   -0.1960  -11.5140    7.1740 C   0  0  0  0  0  0  0  0  0  0  0  0
    0.6520  -10.9540    8.5590 S   0  0  0  0  0  0  0  0  0  0  0  0
    1.6800   -6.9660    8.4280 C   0  0  0  0  0  0  0  0  0  0  0  0
    2.3110   -6.0040    9.1380 N   0  0  0  0  0  0  0  0  0  0  0  0
    2.8930   -6.2710   10.3360 C   0  0  0  0  0  0  0  0  0  0  0  0
    3.5410   -5.2150   11.0330 N   0  0  0  0  0  0  0  0  0  0  0  0
    4.8740   -7.5160   12.4670 C   0  0  0  0  0  0  0  0  0  0  0  0
    5.4570   -7.8050   13.6910 C   0  0  0  0  0  0  0  0  0  0  0  0
    4.7280   -8.4390   14.6870 C   0  0  0  0  0  0  0  0  0  0  0  0
    5.3750   -8.7460   16.0080 C   0  0  0  0  0  0  0  0  0  0  0  0
    4.9180   -9.8690   16.8310 N   0  0  0  0  0  0  0  0  0  0  0  0
    6.2880   -8.0650   16.4150 O   0  0  0  0  0  0  0  0  0  0  0  0
   -0.3196  -10.6167   15.9615 H   0  0  0  0  0  0  0  0  0  0  0  0
    0.9400  -11.5665   16.7412 H   0  0  0  0  0  0  0  0  0  0  0  0
    0.8342   -9.8472   16.9578 H   0  0  0  0  0  0  0  0  0  0  0  0
    0.9779   -9.9251   14.3500 H   0  0  0  0  0  0  0  0  0  0  0  0
    3.2581  -11.9403   15.0451 H   0  0  0  0  0  0  0  0  0  0  0  0
    2.0813  -13.4592   13.4543 H   0  0  0  0  0  0  0  0  0  0  0  0
    1.7469   -8.7170   12.9774 H   0  0  0  0  0  0  0  0  0  0  0  0
    2.1700   -9.5793   10.5463 H   0  0  0  0  0  0  0  0  0  0  0  0
    0.3175   -8.2515    6.2578 H   0  0  0  0  0  0  0  0  0  0  0  0
   -1.7709  -11.2499    4.8670 H   0  0  0  0  0  0  0  0  0  0  0  0
   -0.2253  -10.7687    4.2143 H   0  0  0  0  0  0  0  0  0  0  0  0
   -0.9896   -8.4525    4.6215 H   0  0  0  0  0  0  0  0  0  0  0  0
   -2.0733   -8.3733    2.5575 H   0  0  0  0  0  0  0  0  0  0  0  0
   -0.6901   -9.4816    2.5009 H   0  0  0  0  0  0  0  0  0  0  0  0
   -2.3309  -10.1379    2.6647 H   0  0  0  0  0  0  0  0  0  0  0  0
   -3.3542   -8.1028    4.5419 H   0  0  0  0  0  0  0  0  0  0  0  0
   -3.5952   -9.8776    4.6804 H   0  0  0  0  0  0  0  0  0  0  0  0
   -2.8496   -8.9475    6.0304 H   0  0  0  0  0  0  0  0  0  0  0  0
   -0.5424  -12.5316    7.0699 H   0  0  0  0  0  0  0  0  0  0  0  0
    1.2683   -6.6764    7.4771 H   0  0  0  0  0  0  0  0  0  0  0  0
    3.5580   -4.2812   10.6296 H   0  0  0  0  0  0  0  0  0  0  0  0
    3.9371   -5.3960   11.9441 H   0  0  0  0  0  0  0  0  0  0  0  0
    5.4622   -7.0394   11.6963 H   0  0  0  0  0  0  0  0  0  0  0  0
    6.4915   -7.5322   13.8481 H   0  0  0  0  0  0  0  0  0  0  0  0
    5.3846  -10.0690   17.7051 H   0  0  0  0  0  0  0  0  0  0  0  0
    4.1330  -10.4295   16.5348 H   0  0  0  0  0  0  0  0  0  0  0  0
  1  2  1  0
  1 35  1  0
  1 36  1  0
  1 37  1  0
  2  3  1  0
  2  9  1  0
  2 38  1  6
  3  4  2  0
  3 39  1  0
  4  5  1  0
  4 40  1  0
  5  6  1  0
  5  7  1  0
  5  8  1  0
  9 10  1  0
 10 11  2  0
 10 31  1  0
 11 12  1  0
 11 41  1  0
 12 13  1  0
 12 29  2  0
 13 14  2  0
 13 27  1  0
 14 15  1  0
 14 42  1  0
 15 16  1  0
 15 25  2  0
 16 17  2  0
 16 24  1  0
 17 18  1  0
 17 43  1  0
 18 19  1  0
 18 23  2  0
 19 20  1  0
 19 44  1  0
 19 45  1  0
 20 21  1  0
 20 22  1  0
 20 46  1  0
 21 47  1  0
 21 48  1  0
 21 49  1  0
 22 50  1  0
 22 51  1  0
 22 52  1  0
 23 24  1  0
 23 53  1  0
 25 26  1  0
 25 54  1  0
 26 27  2  0
 27 28  1  0
 28 55  1  0
 28 56  1  0
 29 30  1  0
 29 57  1  0
 30 31  2  0
 30 58  1  0
 31 32  1  0
 32 33  1  0
 32 34  2  0
 33 59  1  0
 33 60  1  0
M  CHG  1  20   1
M  END
$$$$
