EO0_ref
     RDKit          3D

 54 57  0  0  1  0  0  0  0  0999 V2000
   -5.5560   25.5010   12.9660 C   0  0  0  0  0  0  0  0  0  0  0  0
   -5.3060   27.9080   14.3790 C   0  0  0  0  0  0  0  0  0  0  0  0
   -7.8590   28.2110   17.4180 C   0  0  0  0  0  0  0  0  0  0  0  0
   -0.1390   25.8250   11.8850 C   0  0  0  0  0  0  0  0  0  0  0  0
   -0.2970   26.2080   13.2360 C   0  0  0  0  0  0  0  0  0  0  0  0
    0.6350   25.7680   14.1830 C   0  0  0  0  0  0  0  0  0  0  0  0
    1.8530   24.5880   12.4360 C   0  0  0  0  0  0  0  0  0  0  0  0
  -10.6150   25.0190   14.8400 C   0  0  0  0  0  0  0  0  0  0  0  0
   -9.9850   24.0990   13.9910 C   0  0  0  0  0  0  0  0  0  0  0  0
   -8.6680   24.3200   13.5610 C   0  0  0  0  0  0  0  0  0  0  0  0
   -7.9670   25.4750   13.9880 C   0  0  0  0  0  0  0  0  0  0  0  0
   -8.5810   26.3780   14.8130 C   0  0  0  0  0  0  0  0  0  0  0  0
   -9.9240   26.1480   15.2500 C   0  0  0  0  0  0  0  0  0  0  0  0
   -6.6310   25.9850   13.7420 C   0  0  0  0  0  0  0  0  0  0  0  0
   -6.5170   27.1650   14.4380 C   0  0  0  0  0  0  0  0  0  0  0  0
   -4.3720   26.2300   12.9090 C   0  0  0  0  0  0  0  0  0  0  0  0
   -4.2400   27.4350   13.6190 C   0  0  0  0  0  0  0  0  0  0  0  0
   -8.0120   28.5260   15.9320 C   0  0  0  0  0  0  0  0  0  0  0  0
   -3.1950   25.7270   12.0760 C   0  0  0  0  0  0  0  0  0  0  0  0
   -1.1400   26.2820   10.8220 C   0  0  0  0  0  0  0  0  0  0  0  0
    1.7100   24.9620   13.7780 C   0  0  0  0  0  0  0  0  0  0  0  0
    0.9280   25.0210   11.4950 C   0  0  0  0  0  0  0  0  0  0  0  0
    2.6360   22.5830   15.2840 C   0  0  0  0  0  0  0  0  0  0  0  0
    1.1240   22.3120   15.2880 C   0  0  0  0  0  0  0  0  0  0  0  0
   -7.6990   27.3810   15.0830 N   0  0  0  0  0  0  0  0  0  0  0  0
   -2.2880   26.7320   11.5750 N   0  0  0  0  0  0  0  0  0  0  0  0
   -3.0000   24.5810   11.8090 O   0  0  0  0  0  0  0  0  0  0  0  0
    4.2780   24.4780   14.3540 O   0  0  0  0  0  0  0  0  0  0  0  0
    3.0040   25.1420   16.1970 O   0  0  0  0  0  0  0  0  0  0  0  0
    2.9490   24.3460   14.9560 S   0  0  0  0  0  0  0  0  0  0  0  0
   -5.6580   24.5739   12.4190 H   0  0  0  0  0  0  0  0  0  0  0  0
   -5.1916   28.8287   14.9290 H   0  0  0  0  0  0  0  0  0  0  0  0
   -8.1397   29.0532   18.0455 H   0  0  0  0  0  0  0  0  0  0  0  0
   -8.5051   27.3791   17.6941 H   0  0  0  0  0  0  0  0  0  0  0  0
   -6.8289   27.9437   17.6554 H   0  0  0  0  0  0  0  0  0  0  0  0
   -1.0800   26.8526   13.6057 H   0  0  0  0  0  0  0  0  0  0  0  0
    0.5211   26.0391   15.2218 H   0  0  0  0  0  0  0  0  0  0  0  0
    2.6887   23.9836   12.1234 H   0  0  0  0  0  0  0  0  0  0  0  0
  -11.6257   24.8451   15.1786 H   0  0  0  0  0  0  0  0  0  0  0  0
  -10.5138   23.2117   13.6750 H   0  0  0  0  0  0  0  0  0  0  0  0
   -8.1921   23.6024   12.9086 H   0  0  0  0  0  0  0  0  0  0  0  0
  -10.3917   26.8361   15.9262 H   0  0  0  0  0  0  0  0  0  0  0  0
   -3.3195   27.9942   13.6210 H   0  0  0  0  0  0  0  0  0  0  0  0
   -7.3637   29.3582   15.6591 H   0  0  0  0  0  0  0  0  0  0  0  0
   -9.0292   28.8536   15.7110 H   0  0  0  0  0  0  0  0  0  0  0  0
   -1.3704   25.4838   10.1118 H   0  0  0  0  0  0  0  0  0  0  0  0
   -0.7167   27.1187   10.2651 H   0  0  0  0  0  0  0  0  0  0  0  0
    1.0379   24.7247   10.4620 H   0  0  0  0  0  0  0  0  0  0  0  0
    3.1447   21.9752   14.5457 H   0  0  0  0  0  0  0  0  0  0  0  0
    3.0772   22.3614   16.2457 H   0  0  0  0  0  0  0  0  0  0  0  0
    0.8672   21.3681   15.7603 H   0  0  0  0  0  0  0  0  0  0  0  0
    0.6084   23.0696   15.8800 H   0  0  0  0  0  0  0  0  0  0  0  0
    0.6841   22.3404   14.2945 H   0  0  0  0  0  0  0  0  0  0  0  0
   -2.3539   27.7012   11.8545 H   0  0  0  0  0  0  0  0  0  0  0  0
  1 14  2  0
  1 16  1  0
  1 31  1  0
  2 15  2  0
  2 17  1  0
  2 32  1  0
  3 18  1  0
  3 33  1  0
  3 34  1  0
  3 35  1  0
  4  5  2  0
  4 20  1  0
  4 22  1  0
  5  6  1  0
  5 36  1  0
  6 21  2  0
  6 37  1  0
  7 21  1  0
  7 22  2  0
  7 38  1  0
  8  9  2  0
  8 13  1  0
  8 39  1  0
  9 10  1  0
  9 40  1  0
 10 11  2  0
 10 41  1  0
 11 12  1  0
 11 14  1  0
 12 13  2  0
 12 25  1  0
 13 42  1  0
 14 15  1  0
 15 25  1  0
 16 17  2  0
 16 19  1  0
 17 43  1  0
 18 25  1  0
 18 44  1  0
 18 45  1  0
 19 26  1  0
 19 27  2  0
 20 26  1  0
 20 46  1  0
 20 47  1  0
 21 30  1  0
 22 48  1  0
 23 24  1  0
 23 30  1  0
 23 49  1  0
 23 50  1  0
 24 51  1  0
 24 52  1  0
 24 53  1  0
 26 54  1  0
 28 30  2  0
 29 30  2  0
M  END
$$$$
