94M_ref
     RDKit          3D

 37 39  0  0  1  0  0  0  0  0999 V2000
    1.5940   34.8750   25.7580 N   0  0  0  0  0  0  0  0  0  0  0  0
    1.3230   34.2990   24.6010 C   0  0  0  0  0  0  0  0  0  0  0  0
    2.3430   33.8000   23.9490 N   0  0  0  0  0  0  0  0  0  0  0  0
    0.0960   34.2200   24.0790 N   0  0  0  0  0  0  0  0  0  0  0  0
   -0.9480   34.7420   24.7590 C   0  0  0  0  0  0  0  0  0  0  0  0
   -0.7210   35.3390   26.0190 C   0  0  0  0  0  0  0  0  0  0  0  0
    0.5780   35.3890   26.4700 C   0  0  0  0  0  0  0  0  0  0  0  0
    0.9770   36.1350   28.0080 Cl  0  0  0  0  0  0  0  0  0  0  0  0
   -1.9240   35.8120   26.4480 N   0  0  0  0  0  0  0  0  0  0  0  0
   -2.8620   35.4420   25.5740 C   0  0  0  0  0  0  0  0  0  0  0  0
   -2.2570   34.8210   24.5490 N   0  0  0  0  0  0  0  0  0  0  0  0
   -4.5440   29.4950   26.3880 C   0  0  0  0  0  0  0  0  0  0  0  0
   -7.1600   30.5510   24.7860 C   0  0  0  0  0  0  0  0  0  0  0  0
   -2.2590   31.3860   24.3800 C   0  0  0  0  0  0  0  0  0  0  0  0
   -6.2670   32.7750   23.9830 C   0  0  0  0  0  0  0  0  0  0  0  0
   -2.9480   34.2740   23.3670 C   0  0  0  0  0  0  0  0  0  0  0  0
   -5.2630   33.6260   23.6720 N   0  0  0  0  0  0  0  0  0  0  0  0
   -4.4450   29.7890   25.0020 O   0  0  0  0  0  0  0  0  0  0  0  0
   -6.0190   31.4930   24.4680 C   0  0  0  0  0  0  0  0  0  0  0  0
   -3.6860   31.9250   24.2390 C   0  0  0  0  0  0  0  0  0  0  0  0
   -3.9870   33.2430   23.7850 C   0  0  0  0  0  0  0  0  0  0  0  0
   -4.7130   31.0540   24.5460 C   0  0  0  0  0  0  0  0  0  0  0  0
    2.1891   33.3585   23.0539 H   0  0  0  0  0  0  0  0  0  0  0  0
    3.2766   33.8537   24.3398 H   0  0  0  0  0  0  0  0  0  0  0  0
   -3.9248   35.6301   25.5743 H   0  0  0  0  0  0  0  0  0  0  0  0
   -4.1199   28.5106   26.5812 H   0  0  0  0  0  0  0  0  0  0  0  0
   -3.9793   30.2202   26.9742 H   0  0  0  0  0  0  0  0  0  0  0  0
   -5.5754   29.4928   26.7371 H   0  0  0  0  0  0  0  0  0  0  0  0
   -6.9025   29.5187   24.5527 H   0  0  0  0  0  0  0  0  0  0  0  0
   -7.4401   30.6205   25.8371 H   0  0  0  0  0  0  0  0  0  0  0  0
   -8.0348   30.7831   24.1796 H   0  0  0  0  0  0  0  0  0  0  0  0
   -2.1796   30.4140   24.8585 H   0  0  0  0  0  0  0  0  0  0  0  0
   -1.7856   31.3222   23.4010 H   0  0  0  0  0  0  0  0  0  0  0  0
   -1.6640   32.0796   24.9682 H   0  0  0  0  0  0  0  0  0  0  0  0
   -7.2742   33.1457   23.8623 H   0  0  0  0  0  0  0  0  0  0  0  0
   -2.2349   33.8092   22.6950 H   0  0  0  0  0  0  0  0  0  0  0  0
   -3.3945   35.1063   22.8197 H   0  0  0  0  0  0  0  0  0  0  0  0
  1  2  2  0
  1  7  1  0
  2  3  1  0
  2  4  1  0
  3 23  1  0
  3 24  1  0
  4  5  2  0
  5  6  1  0
  5 11  1  0
  6  7  2  0
  6  9  1  0
  7  8  1  0
  9 10  2  0
 10 11  1  0
 10 25  1  0
 11 16  1  0
 12 18  1  0
 12 26  1  0
 12 27  1  0
 12 28  1  0
 13 19  1  0
 13 29  1  0
 13 30  1  0
 13 31  1  0
 14 20  1  0
 14 32  1  0
 14 33  1  0
 14 34  1  0
 15 17  2  0
 15 19  1  0
 15 35  1  0
 16 21  1  0
 16 36  1  0
 16 37  1  0
 17 21  1  0
 18 22  1  0
 19 22  2  0
 20 21  2  0
 20 22  1  0
M  END
$$$$
