P9J_ref
     RDKit          3D

 39 42  0  0  1  0  0  0  0  0999 V2000
   -4.1660   32.5900   -2.6600 C   0  0  0  0  0  0  0  0  0  0  0  0
   -4.7510   31.7910   -3.5890 N   0  0  0  0  0  0  0  0  0  0  0  0
   -3.3050   33.6130   -3.0720 C   0  0  0  0  0  0  0  0  0  0  0  0
   -2.7060   34.4590   -2.1340 C   0  0  0  0  0  0  0  0  0  0  0  0
   -1.8470   35.4750   -2.5470 C   0  0  0  0  0  0  0  0  0  0  0  0
   -1.5800   35.6340   -3.8980 C   0  0  0  0  0  0  0  0  0  0  0  0
   -2.1780   34.7890   -4.8450 C   0  0  0  0  0  0  0  0  0  0  0  0
   -3.0430   33.7640   -4.4430 C   0  0  0  0  0  0  0  0  0  0  0  0
   -3.6550   32.8760   -5.3510 C   0  0  0  0  0  0  0  0  0  0  0  0
   -4.4760   31.9290   -4.8740 N   0  0  0  0  0  0  0  0  0  0  0  0
   -5.5280   30.7640   -3.2060 C   0  0  0  0  0  0  0  0  0  0  0  0
   -6.3830   30.8100   -2.0970 C   0  0  0  0  0  0  0  0  0  0  0  0
   -7.1000   29.6600   -1.7320 C   0  0  0  0  0  0  0  0  0  0  0  0
   -6.9640   28.4660   -2.4470 C   0  0  0  0  0  0  0  0  0  0  0  0
   -6.0960   28.3990   -3.5360 C   0  0  0  0  0  0  0  0  0  0  0  0
   -5.3750   29.5440   -3.8970 C   0  0  0  0  0  0  0  0  0  0  0  0
   -3.4050   33.0520   -6.6620 N   0  0  0  0  0  0  0  0  0  0  0  0
   -3.9620   32.3360   -7.6630 C   0  0  0  0  0  0  0  0  0  0  0  0
   -4.7210   31.2250   -7.5930 C   0  0  0  0  0  0  0  0  0  0  0  0
   -5.0350   30.8890   -8.8530 C   0  0  0  0  0  0  0  0  0  0  0  0
   -4.4660   31.7490   -9.7020 N   0  0  0  0  0  0  0  0  0  0  0  0
   -3.7890   32.6560   -8.9590 N   0  0  0  0  0  0  0  0  0  0  0  0
   -5.8870   29.6930   -9.2640 C   0  0  0  0  0  0  0  0  0  0  0  0
   -4.4160   32.4290   -1.4620 O   0  0  0  0  0  0  0  0  0  0  0  0
   -2.8975   34.3515   -1.0750 H   0  0  0  0  0  0  0  0  0  0  0  0
   -1.3906   36.1323   -1.8214 H   0  0  0  0  0  0  0  0  0  0  0  0
   -0.9053   36.4121   -4.2242 H   0  0  0  0  0  0  0  0  0  0  0  0
   -1.8846   34.9295   -5.8705 H   0  0  0  0  0  0  0  0  0  0  0  0
   -6.5919   31.7115   -1.5405 H   0  0  0  0  0  0  0  0  0  0  0  0
   -7.7798   29.7030   -0.8938 H   0  0  0  0  0  0  0  0  0  0  0  0
   -7.5251   27.5922   -2.1501 H   0  0  0  0  0  0  0  0  0  0  0  0
   -5.9738   27.4756   -4.0756 H   0  0  0  0  0  0  0  0  0  0  0  0
   -4.6844   29.4444   -4.7228 H   0  0  0  0  0  0  0  0  0  0  0  0
   -2.8723   33.8751   -6.9029 H   0  0  0  0  0  0  0  0  0  0  0  0
   -5.0554   30.6515   -6.7462 H   0  0  0  0  0  0  0  0  0  0  0  0
   -4.5096   31.7461  -10.7143 H   0  0  0  0  0  0  0  0  0  0  0  0
   -5.5481   29.2567  -10.2044 H   0  0  0  0  0  0  0  0  0  0  0  0
   -5.8590   28.8960   -8.5205 H   0  0  0  0  0  0  0  0  0  0  0  0
   -6.9330   29.9702   -9.3923 H   0  0  0  0  0  0  0  0  0  0  0  0
  1  2  1  0
  1  3  1  0
  1 24  2  0
  2 10  1  0
  2 11  1  0
  3  4  2  0
  3  8  1  0
  4  5  1  0
  4 25  1  0
  5  6  2  0
  5 26  1  0
  6  7  1  0
  6 27  1  0
  7  8  2  0
  7 28  1  0
  8  9  1  0
  9 10  2  0
  9 17  1  0
 11 12  2  0
 11 16  1  0
 12 13  1  0
 12 29  1  0
 13 14  2  0
 13 30  1  0
 14 15  1  0
 14 31  1  0
 15 16  2  0
 15 32  1  0
 16 33  1  0
 17 18  1  0
 17 34  1  0
 18 19  1  0
 18 22  2  0
 19 20  2  0
 19 35  1  0
 20 21  1  0
 20 23  1  0
 21 22  1  0
 21 36  1  0
 23 37  1  0
 23 38  1  0
 23 39  1  0
M  END
$$$$
