6I4_ref
     RDKit          3D

 31 34  0  0  1  0  0  0  0  0999 V2000
   35.6240   39.2720   62.7290 C   0  0  0  0  0  0  0  0  0  0  0  0
   35.7040   38.5450   63.9110 C   0  0  0  0  0  0  0  0  0  0  0  0
   35.0280   37.3340   64.0580 C   0  0  0  0  0  0  0  0  0  0  0  0
   34.8660   38.8230   61.6300 C   0  0  0  0  0  0  0  0  0  0  0  0
   34.1980   37.6000   61.8120 C   0  0  0  0  0  0  0  0  0  0  0  0
   34.2550   36.8450   62.9860 C   0  0  0  0  0  0  0  0  0  0  0  0
   34.7190   39.5380   60.3190 C   0  0  0  0  0  0  0  0  0  0  0  0
   35.4710   40.8160   60.0200 C   0  0  0  0  0  0  0  0  0  0  0  0
   33.9920   40.8590   60.2400 C   0  0  0  0  0  0  0  0  0  0  0  0
   32.9370   35.7520   61.5120 C   0  0  0  0  0  0  0  0  0  0  0  0
   33.4580   35.6750   62.7950 C   0  0  0  0  0  0  0  0  0  0  0  0
   33.1060   34.5490   63.5530 C   0  0  0  0  0  0  0  0  0  0  0  0
   32.2660   33.6050   62.9540 C   0  0  0  0  0  0  0  0  0  0  0  0
   31.8110   33.8080   61.6480 C   0  0  0  0  0  0  0  0  0  0  0  0
   30.9080   32.7910   61.0100 C   0  0  0  0  0  0  0  0  0  0  0  0
   32.1270   34.8820   60.8890 N   0  0  0  0  0  0  0  0  0  0  0  0
   33.3880   36.9020   60.9470 N   0  0  0  0  0  0  0  0  0  0  0  0
   36.1618   40.1997   62.6630 H   0  0  0  0  0  0  0  0  0  0  0  0
   36.2885   38.9350   64.7272 H   0  0  0  0  0  0  0  0  0  0  0  0
   35.1006   36.7811   64.9830 H   0  0  0  0  0  0  0  0  0  0  0  0
   34.7978   38.8835   59.4732 H   0  0  0  0  0  0  0  0  0  0  0  0
   35.8351   40.9880   59.0088 H   0  0  0  0  0  0  0  0  0  0  0  0
   36.1279   41.2634   60.7640 H   0  0  0  0  0  0  0  0  0  0  0  0
   33.5970   41.2919   61.1558 H   0  0  0  0  0  0  0  0  0  0  0  0
   33.3674   41.0608   59.3762 H   0  0  0  0  0  0  0  0  0  0  0  0
   33.4703   34.4134   64.5604 H   0  0  0  0  0  0  0  0  0  0  0  0
   31.9743   32.7234   63.5058 H   0  0  0  0  0  0  0  0  0  0  0  0
   30.1571   33.2694   60.3790 H   0  0  0  0  0  0  0  0  0  0  0  0
   31.4891   32.1101   60.3879 H   0  0  0  0  0  0  0  0  0  0  0  0
   30.3765   32.1986   61.7555 H   0  0  0  0  0  0  0  0  0  0  0  0
   33.1738   37.2005   60.0032 H   0  0  0  0  0  0  0  0  0  0  0  0
  1  2  2  0
  1  4  1  0
  1 18  1  0
  2  3  1  0
  2 19  1  0
  3  6  2  0
  3 20  1  0
  4  5  2  0
  4  7  1  0
  5  6  1  0
  5 17  1  0
  6 11  1  0
  7  8  1  0
  7  9  1  0
  7 21  1  0
  8  9  1  0
  8 22  1  0
  8 23  1  0
  9 24  1  0
  9 25  1  0
 10 11  2  0
 10 16  1  0
 10 17  1  0
 11 12  1  0
 12 13  2  0
 12 26  1  0
 13 14  1  0
 13 27  1  0
 14 15  1  0
 14 16  2  0
 15 28  1  0
 15 29  1  0
 15 30  1  0
 17 31  1  0
M  END
$$$$
