1BK_ref
     RDKit          3D

 58 61  0  0  1  0  0  0  0  0999 V2000
   -3.8040   -0.8140    9.1230 N   0  0  0  0  0  0  0  0  0  0  0  0
   -2.7750   -1.3060    9.9070 C   0  0  0  0  0  0  0  0  0  0  0  0
   -2.0520   -2.3430    9.4880 N   0  0  0  0  0  0  0  0  0  0  0  0
   -1.0570   -2.8240   10.2380 C   0  0  0  0  0  0  0  0  0  0  0  0
   -0.7770   -2.2470   11.4680 C   0  0  0  0  0  0  0  0  0  0  0  0
   -1.5440   -1.1470   11.8740 C   0  0  0  0  0  0  0  0  0  0  0  0
   -2.5240   -0.7270   11.0730 N   0  0  0  0  0  0  0  0  0  0  0  0
   -1.3040   -0.5300   13.1060 N   0  0  0  0  0  0  0  0  0  0  0  0
   -0.4620   -1.0720   14.0760 N   0  0  0  0  0  0  0  0  0  0  0  0
   -0.4190   -0.3150   15.1230 C   0  0  0  0  0  0  0  0  0  0  0  0
   -1.8460    0.6420   13.6060 C   0  0  0  0  0  0  0  0  0  0  0  0
   -1.3020    0.8140   14.8920 C   0  0  0  0  0  0  0  0  0  0  0  0
   -1.6380    1.9200   15.6910 C   0  0  0  0  0  0  0  0  0  0  0  0
   -2.5420    2.8550   15.2110 C   0  0  0  0  0  0  0  0  0  0  0  0
   -3.0790    2.6920   13.9270 C   0  0  0  0  0  0  0  0  0  0  0  0
   -2.7410    1.6030   13.1360 C   0  0  0  0  0  0  0  0  0  0  0  0
   -4.6630    0.2670    9.6270 C   0  0  2  0  0  0  0  0  0  0  0  0
   -5.7950   -0.3210   10.4870 C   0  0  0  0  0  0  0  0  0  0  0  0
   -6.6570    0.8140   11.0500 C   0  0  0  0  0  0  0  0  0  0  0  0
   -7.3030    1.5730    9.8860 C   0  0  2  0  0  0  0  0  0  0  0  0
   -6.2190    2.1600    8.9640 C   0  0  0  0  0  0  0  0  0  0  0  0
   -5.2600    1.0640    8.4600 C   0  0  0  0  0  0  0  0  0  0  0  0
   -8.1050    2.6200   10.4300 O   0  0  0  0  0  0  0  0  0  0  0  0
   -1.0700    1.9530   16.9270 O   0  0  0  0  0  0  0  0  0  0  0  0
   -0.7940    3.2480   17.4620 C   0  0  0  0  0  0  0  0  0  0  0  0
    0.3710    3.0930   18.4540 C   0  0  0  0  0  0  0  0  0  0  0  0
   -0.0210    2.0970   19.5430 C   0  0  0  0  0  0  0  0  0  0  0  0
    1.2970    1.8990   20.7850 S   0  0  0  0  0  0  0  0  0  0  0  0
    0.4460    0.6790   21.8270 C   0  0  0  0  0  0  0  0  0  0  0  0
    2.4540    1.2920   20.2180 O   0  0  0  0  0  0  0  0  0  0  0  0
    1.4440    3.1060   21.5260 O   0  0  0  0  0  0  0  0  0  0  0  0
   -4.1132   -1.3422    8.3168 H   0  0  0  0  0  0  0  0  0  0  0  0
   -0.5145   -3.6909    9.9146 H   0  0  0  0  0  0  0  0  0  0  0  0
    0.0237   -2.6446   12.0741 H   0  0  0  0  0  0  0  0  0  0  0  0
    0.1917   -0.5375   15.9802 H   0  0  0  0  0  0  0  0  0  0  0  0
   -2.8562    3.6855   15.8236 H   0  0  0  0  0  0  0  0  0  0  0  0
   -3.7851    3.4188   13.5533 H   0  0  0  0  0  0  0  0  0  0  0  0
   -3.1850    1.5238   12.1577 H   0  0  0  0  0  0  0  0  0  0  0  0
   -4.0771    0.9508   10.2394 H   0  0  0  0  0  0  0  0  0  0  0  0
   -5.3807   -0.8965   11.3160 H   0  0  0  0  0  0  0  0  0  0  0  0
   -6.4059   -1.0174    9.9080 H   0  0  0  0  0  0  0  0  0  0  0  0
   -6.0560    1.4779   11.6748 H   0  0  0  0  0  0  0  0  0  0  0  0
   -7.4294    0.3939   11.6969 H   0  0  0  0  0  0  0  0  0  0  0  0
   -7.9594    0.9357    9.3075 H   0  0  0  0  0  0  0  0  0  0  0  0
   -5.6497    2.9294    9.4891 H   0  0  0  0  0  0  0  0  0  0  0  0
   -6.6854    2.6547    8.1107 H   0  0  0  0  0  0  0  0  0  0  0  0
   -5.8139    0.4054    7.7908 H   0  0  0  0  0  0  0  0  0  0  0  0
   -4.4654    1.5131    7.8619 H   0  0  0  0  0  0  0  0  0  0  0  0
   -7.5376    3.2040   10.9395 H   0  0  0  0  0  0  0  0  0  0  0  0
   -1.6787    3.6562   17.9535 H   0  0  0  0  0  0  0  0  0  0  0  0
   -0.4915    3.9527   16.6846 H   0  0  0  0  0  0  0  0  0  0  0  0
    0.6449    4.0460   18.8898 H   0  0  0  0  0  0  0  0  0  0  0  0
    1.2581    2.7363   17.9289 H   0  0  0  0  0  0  0  0  0  0  0  0
   -0.2130    1.1060   19.1302 H   0  0  0  0  0  0  0  0  0  0  0  0
   -0.9186    2.4200   20.0713 H   0  0  0  0  0  0  0  0  0  0  0  0
    1.1034    0.4024   22.6471 H   0  0  0  0  0  0  0  0  0  0  0  0
   -0.4701    1.1193   22.2197 H   0  0  0  0  0  0  0  0  0  0  0  0
    0.2129   -0.2024   21.2301 H   0  0  0  0  0  0  0  0  0  0  0  0
  1  2  1  0
  1 17  1  0
  1 32  1  0
  2  3  2  0
  2  7  1  0
  3  4  1  0
  4  5  2  0
  4 33  1  0
  5  6  1  0
  5 34  1  0
  6  7  2  0
  6  8  1  0
  8  9  1  0
  8 11  1  0
  9 10  2  0
 10 12  1  0
 10 35  1  0
 11 12  2  0
 11 16  1  0
 12 13  1  0
 13 14  2  0
 13 24  1  0
 14 15  1  0
 14 36  1  0
 15 16  2  0
 15 37  1  0
 16 38  1  0
 17 18  1  0
 17 22  1  0
 17 39  1  1
 18 19  1  0
 18 40  1  0
 18 41  1  0
 19 20  1  0
 19 42  1  0
 19 43  1  0
 20 21  1  0
 20 23  1  0
 20 44  1  6
 21 22  1  0
 21 45  1  0
 21 46  1  0
 22 47  1  0
 22 48  1  0
 23 49  1  0
 24 25  1  0
 25 26  1  0
 25 50  1  0
 25 51  1  0
 26 27  1  0
 26 52  1  0
 26 53  1  0
 27 28  1  0
 27 54  1  0
 27 55  1  0
 28 29  1  0
 28 30  2  0
 28 31  2  0
 29 56  1  0
 29 57  1  0
 29 58  1  0
M  END
$$$$
