3ZN_ref
     RDKit          3D

 77 79  0  0  1  0  0  0  0  0999 V2000
   69.6170   89.1410  -21.5570 C   0  0  0  0  0  0  0  0  0  0  0  0
   69.0390   87.8920  -22.2710 C   0  0  2  0  0  0  0  0  0  0  0  0
   64.3220   88.0310  -21.9530 C   0  0  0  0  0  0  0  0  0  0  0  0
   66.8260   86.1950  -20.7890 C   0  0  0  0  0  0  0  0  0  0  0  0
   66.0620   85.7270  -19.5620 C   0  0  0  0  0  0  0  0  0  0  0  0
   65.2060   84.6120  -19.5910 C   0  0  0  0  0  0  0  0  0  0  0  0
   64.7690   84.9010  -17.1940 C   0  0  0  0  0  0  0  0  0  0  0  0
   65.6490   85.9970  -17.1460 C   0  0  0  0  0  0  0  0  0  0  0  0
   64.5460   84.2090  -18.4160 C   0  0  0  0  0  0  0  0  0  0  0  0
   66.3110   86.3850  -18.3350 C   0  0  0  0  0  0  0  0  0  0  0  0
   63.3320   83.3820  -15.8330 C   0  0  0  0  0  0  0  0  0  0  0  0
   66.6390   87.8180  -15.6920 C   0  0  0  0  0  0  0  0  0  0  0  0
   65.7920   89.0970  -15.9750 C   0  0  0  0  0  0  0  0  0  0  0  0
   66.6270   90.3830  -15.7610 C   0  0  0  0  0  0  0  0  0  0  0  0
   68.4880   90.7940  -14.2630 C   0  0  0  0  0  0  0  0  0  0  0  0
   71.5640   86.1280  -24.1470 C   0  0  0  0  0  0  0  0  0  0  0  0
   70.1420   89.9540  -22.6720 N   0  0  0  0  0  0  0  0  0  0  0  0
   69.8710   87.7060  -23.5490 C   0  0  1  0  0  0  0  0  0  0  0  0
   70.6510   89.0310  -23.7060 C   0  0  0  0  0  0  0  0  0  0  0  0
   67.5100   87.7500  -22.5610 C   0  0  0  0  0  0  0  0  0  0  0  0
   70.6160   86.4980  -23.2960 O   0  0  0  0  0  0  0  0  0  0  0  0
   66.6650   87.4220  -21.3860 N   0  0  0  0  0  0  0  0  0  0  0  0
   65.5300   88.2860  -20.9980 C   0  0  0  0  0  0  0  0  0  0  0  0
   65.8520   89.7970  -20.8740 C   0  0  0  0  0  0  0  0  0  0  0  0
   67.6880   85.3970  -21.1430 O   0  0  0  0  0  0  0  0  0  0  0  0
   64.1360   84.5590  -15.9990 O   0  0  0  0  0  0  0  0  0  0  0  0
   65.8400   86.6360  -15.9040 O   0  0  0  0  0  0  0  0  0  0  0  0
   67.0830   90.4880  -14.3980 O   0  0  0  0  0  0  0  0  0  0  0  0
   72.8140   86.4570  -23.7010 N   0  0  0  0  0  0  0  0  0  0  0  0
   71.2590   85.5330  -25.1720 O   0  0  0  0  0  0  0  0  0  0  0  0
   74.0160   86.1780  -24.4620 C   0  0  0  0  0  0  0  0  0  0  0  0
   74.1860   87.2270  -25.5720 C   0  0  0  0  0  0  0  0  0  0  0  0
   74.5550   86.8010  -26.8630 C   0  0  0  0  0  0  0  0  0  0  0  0
   74.5040   89.1420  -27.6180 C   0  0  0  0  0  0  0  0  0  0  0  0
   74.1270   89.5800  -26.3320 C   0  0  0  0  0  0  0  0  0  0  0  0
   74.7080   87.7620  -27.8820 C   0  0  0  0  0  0  0  0  0  0  0  0
   73.9800   88.6150  -25.3150 C   0  0  0  0  0  0  0  0  0  0  0  0
   70.4540   88.9074  -20.8986 H   0  0  0  0  0  0  0  0  0  0  0  0
   68.8794   89.7383  -21.0274 H   0  0  0  0  0  0  0  0  0  0  0  0
   69.2866   87.1047  -21.5605 H   0  0  0  0  0  0  0  0  0  0  0  0
   63.4543   88.5956  -21.6215 H   0  0  0  0  0  0  0  0  0  0  0  0
   64.5464   88.3300  -22.9771 H   0  0  0  0  0  0  0  0  0  0  0  0
   64.0257   86.9814  -21.9514 H   0  0  0  0  0  0  0  0  0  0  0  0
   65.0258   84.0823  -20.5151 H   0  0  0  0  0  0  0  0  0  0  0  0
   63.8530   83.3871  -18.4571 H   0  0  0  0  0  0  0  0  0  0  0  0
   66.9980   87.2175  -18.3165 H   0  0  0  0  0  0  0  0  0  0  0  0
   63.0387   83.2709  -14.7911 H   0  0  0  0  0  0  0  0  0  0  0  0
   62.4275   83.4441  -16.4389 H   0  0  0  0  0  0  0  0  0  0  0  0
   63.8840   82.4864  -16.1204 H   0  0  0  0  0  0  0  0  0  0  0  0
   66.9517   87.8177  -14.6607 H   0  0  0  0  0  0  0  0  0  0  0  0
   67.5565   87.7911  -16.2792 H   0  0  0  0  0  0  0  0  0  0  0  0
   64.9117   89.1122  -15.3314 H   0  0  0  0  0  0  0  0  0  0  0  0
   65.4282   89.0703  -17.0022 H   0  0  0  0  0  0  0  0  0  0  0  0
   66.0016   91.2535  -15.9500 H   0  0  0  0  0  0  0  0  0  0  0  0
   67.4324   90.4415  -16.4721 H   0  0  0  0  0  0  0  0  0  0  0  0
   68.8128   90.5772  -13.2471 H   0  0  0  0  0  0  0  0  0  0  0  0
   69.0784   90.1792  -14.9343 H   0  0  0  0  0  0  0  0  0  0  0  0
   68.6797   91.8450  -14.4685 H   0  0  0  0  0  0  0  0  0  0  0  0
   70.8463   90.6050  -22.3402 H   0  0  0  0  0  0  0  0  0  0  0  0
   69.3854   90.5236  -23.0360 H   0  0  0  0  0  0  0  0  0  0  0  0
   69.2482   87.5192  -24.4207 H   0  0  0  0  0  0  0  0  0  0  0  0
   71.7115   88.9338  -23.4953 H   0  0  0  0  0  0  0  0  0  0  0  0
   70.5025   89.5228  -24.6671 H   0  0  0  0  0  0  0  0  0  0  0  0
   67.3485   86.9431  -23.2753 H   0  0  0  0  0  0  0  0  0  0  0  0
   67.1450   88.6657  -23.0265 H   0  0  0  0  0  0  0  0  0  0  0  0
   65.1823   88.0075  -20.0042 H   0  0  0  0  0  0  0  0  0  0  0  0
   66.7187   89.9871  -20.2427 H   0  0  0  0  0  0  0  0  0  0  0  0
   66.0037   90.2340  -21.8543 H   0  0  0  0  0  0  0  0  0  0  0  0
   65.0039   90.3317  -20.4465 H   0  0  0  0  0  0  0  0  0  0  0  0
   72.9057   86.9318  -22.8116 H   0  0  0  0  0  0  0  0  0  0  0  0
   74.0102   85.1583  -24.8534 H   0  0  0  0  0  0  0  0  0  0  0  0
   74.8476   86.2808  -23.7668 H   0  0  0  0  0  0  0  0  0  0  0  0
   74.7040   85.7536  -27.0803 H   0  0  0  0  0  0  0  0  0  0  0  0
   74.6216   89.8652  -28.4110 H   0  0  0  0  0  0  0  0  0  0  0  0
   73.9696   90.6292  -26.1275 H   0  0  0  0  0  0  0  0  0  0  0  0
   74.9859   87.4439  -28.8761 H   0  0  0  0  0  0  0  0  0  0  0  0
   73.7297   88.9484  -24.3199 H   0  0  0  0  0  0  0  0  0  0  0  0
  1  2  1  0
  1 17  1  0
  1 38  1  0
  1 39  1  0
  2 18  1  0
  2 20  1  0
  2 40  1  1
  3 23  1  0
  3 41  1  0
  3 42  1  0
  3 43  1  0
  4  5  1  0
  4 22  1  0
  4 25  2  0
  5  6  2  0
  5 10  1  0
  6  9  1  0
  6 44  1  0
  7  8  1  0
  7  9  2  0
  7 26  1  0
  8 10  2  0
  8 27  1  0
  9 45  1  0
 10 46  1  0
 11 26  1  0
 11 47  1  0
 11 48  1  0
 11 49  1  0
 12 13  1  0
 12 27  1  0
 12 50  1  0
 12 51  1  0
 13 14  1  0
 13 52  1  0
 13 53  1  0
 14 28  1  0
 14 54  1  0
 14 55  1  0
 15 28  1  0
 15 56  1  0
 15 57  1  0
 15 58  1  0
 16 21  1  0
 16 29  1  0
 16 30  2  0
 17 19  1  0
 17 59  1  0
 17 60  1  0
 18 19  1  0
 18 21  1  0
 18 61  1  6
 19 62  1  0
 19 63  1  0
 20 22  1  0
 20 64  1  0
 20 65  1  0
 22 23  1  0
 23 24  1  0
 23 66  1  0
 24 67  1  0
 24 68  1  0
 24 69  1  0
 29 31  1  0
 29 70  1  0
 31 32  1  0
 31 71  1  0
 31 72  1  0
 32 33  2  0
 32 37  1  0
 33 36  1  0
 33 73  1  0
 34 35  1  0
 34 36  2  0
 34 74  1  0
 35 37  2  0
 35 75  1  0
 36 76  1  0
 37 77  1  0
M  CHG  1  17   1
M  END
$$$$
