D76_ref
     RDKit          3D

 59 63  0  0  1  0  0  0  0  0999 V2000
    9.7770    0.3270   16.8850 C   0  0  0  0  0  0  0  0  0  0  0  0
    8.8880    1.4080   17.3350 N   0  0  0  0  0  0  0  0  0  0  0  0
    8.1500    1.0110   18.5780 C   0  0  0  0  0  0  0  0  0  0  0  0
    9.5380    2.7670   17.3910 C   0  0  0  0  0  0  0  0  0  0  0  0
    8.5460    3.9030   17.7650 C   0  0  0  0  0  0  0  0  0  0  0  0
    7.5950    3.5130   18.8950 C   0  0  0  0  0  0  0  0  0  0  0  0
    7.4390    2.1940   19.2350 C   0  0  0  0  0  0  0  0  0  0  0  0
    6.8460    4.3850   19.6390 N   0  0  0  0  0  0  0  0  0  0  0  0
    6.1340    3.6760   20.5460 C   0  0  0  0  0  0  0  0  0  0  0  0
    6.3410    1.9780   20.5220 S   0  0  0  0  0  0  0  0  0  0  0  0
    5.1500    4.2030   21.5870 C   0  0  0  0  0  0  0  0  0  0  0  0
    4.6270    3.3610   22.3410 O   0  0  0  0  0  0  0  0  0  0  0  0
    4.8500    5.5250   21.6730 N   0  0  0  0  0  0  0  0  0  0  0  0
    4.0740    6.0250   22.8560 C   0  0  0  0  0  0  0  0  0  0  0  0
    5.0210    6.8520   23.7360 C   0  0  0  0  0  0  0  0  0  0  0  0
    5.5400    6.5710   20.8060 C   0  0  1  0  0  0  0  0  0  0  0  0
    4.5900    7.5120   19.9910 C   0  0  0  0  0  0  0  0  0  0  0  0
    4.9300    8.6030   19.5210 O   0  0  0  0  0  0  0  0  0  0  0  0
    3.3390    7.1600   19.7830 N   0  0  0  0  0  0  0  0  0  0  0  0
    6.4650    7.4040   21.7340 C   0  0  0  0  0  0  0  0  0  0  0  0
    5.6690    7.8790   22.8930 N   0  0  0  0  0  0  0  0  0  0  0  0
    6.1310    9.3630   23.5960 S   0  0  0  0  0  0  0  0  0  0  0  0
    5.3340    9.6380   24.9390 O   0  0  0  0  0  0  0  0  0  0  0  0
    6.0510   10.4380   22.4280 O   0  0  0  0  0  0  0  0  0  0  0  0
    7.8130    9.0440   24.0090 C   0  0  0  0  0  0  0  0  0  0  0  0
    8.8150    9.4950   23.1520 C   0  0  0  0  0  0  0  0  0  0  0  0
   10.1500    9.2170   23.4840 C   0  0  0  0  0  0  0  0  0  0  0  0
   10.4690    8.4910   24.6490 C   0  0  0  0  0  0  0  0  0  0  0  0
   11.7970    8.2070   24.9810 C   0  0  0  0  0  0  0  0  0  0  0  0
    9.4070    7.9940   25.5200 C   0  0  0  0  0  0  0  0  0  0  0  0
    8.0820    8.2960   25.1740 C   0  0  0  0  0  0  0  0  0  0  0  0
    9.7420    7.2870   26.6790 C   0  0  0  0  0  0  0  0  0  0  0  0
   11.0830    7.0300   26.9910 C   0  0  0  0  0  0  0  0  0  0  0  0
   12.1070    7.4830   26.1370 C   0  0  0  0  0  0  0  0  0  0  0  0
   13.8160    7.1700   26.4730 Cl  0  0  0  0  0  0  0  0  0  0  0  0
   10.7598    0.7203   16.7157 H   0  0  0  0  0  0  0  0  0  0  0  0
    9.8398   -0.4604   17.6346 H   0  0  0  0  0  0  0  0  0  0  0  0
    9.3756   -0.1369   15.9908 H   0  0  0  0  0  0  0  0  0  0  0  0
    8.8518    0.6053   19.3089 H   0  0  0  0  0  0  0  0  0  0  0  0
    7.4344    0.2320   18.3202 H   0  0  0  0  0  0  0  0  0  0  0  0
    9.9903    2.9769   16.4243 H   0  0  0  0  0  0  0  0  0  0  0  0
   10.3692    2.7352   18.0971 H   0  0  0  0  0  0  0  0  0  0  0  0
    7.9742    4.1573   16.8721 H   0  0  0  0  0  0  0  0  0  0  0  0
    9.0967    4.8074   18.0043 H   0  0  0  0  0  0  0  0  0  0  0  0
    3.5630    5.2439   23.4206 H   0  0  0  0  0  0  0  0  0  0  0  0
    3.3059    6.6893   22.4593 H   0  0  0  0  0  0  0  0  0  0  0  0
    5.8082    6.2042   24.1202 H   0  0  0  0  0  0  0  0  0  0  0  0
    4.4852    7.3183   24.5624 H   0  0  0  0  0  0  0  0  0  0  0  0
    6.0905    6.3328   19.9232 H   0  0  0  0  0  0  0  0  0  0  0  0
    2.7298    7.7712   19.2599 H   0  0  0  0  0  0  0  0  0  0  0  0
    2.9908    6.2783   20.1290 H   0  0  0  0  0  0  0  0  0  0  0  0
    6.9210    8.2494   21.2161 H   0  0  0  0  0  0  0  0  0  0  0  0
    7.2533    6.7499   22.1103 H   0  0  0  0  0  0  0  0  0  0  0  0
    8.5833   10.0376   22.2473 H   0  0  0  0  0  0  0  0  0  0  0  0
   10.9579    9.5069   22.8343 H   0  0  0  0  0  0  0  0  0  0  0  0
   12.5817    8.4952   24.3027 H   0  0  0  0  0  0  0  0  0  0  0  0
    7.2720    7.9876   25.8035 H   0  0  0  0  0  0  0  0  0  0  0  0
    8.9620    6.9393   27.3405 H   0  0  0  0  0  0  0  0  0  0  0  0
   11.3311    6.4792   27.8834 H   0  0  0  0  0  0  0  0  0  0  0  0
  1  2  1  0
  1 36  1  0
  1 37  1  0
  1 38  1  0
  2  3  1  0
  2  4  1  0
  3  7  1  0
  3 39  1  0
  3 40  1  0
  4  5  1  0
  4 41  1  0
  4 42  1  0
  5  6  1  0
  5 43  1  0
  5 44  1  0
  6  7  2  0
  6  8  1  0
  7 10  1  0
  8  9  2  0
  9 10  1  0
  9 11  1  0
 11 12  2  0
 11 13  1  0
 13 14  1  0
 13 16  1  0
 14 15  1  0
 14 45  1  0
 14 46  1  0
 15 21  1  0
 15 47  1  0
 15 48  1  0
 16 17  1  0
 16 20  1  0
 16 49  1  6
 17 18  2  0
 17 19  1  0
 19 50  1  0
 19 51  1  0
 20 21  1  0
 20 52  1  0
 20 53  1  0
 21 22  1  0
 22 23  2  0
 22 24  2  0
 22 25  1  0
 25 26  2  0
 25 31  1  0
 26 27  1  0
 26 54  1  0
 27 28  2  0
 27 55  1  0
 28 29  1  0
 28 30  1  0
 29 34  2  0
 29 56  1  0
 30 31  2  0
 30 32  1  0
 31 57  1  0
 32 33  2  0
 32 58  1  0
 33 34  1  0
 33 59  1  0
 34 35  1  0
M  END
$$$$
