4F2_ref
     RDKit          3D

 62 65  0  0  1  0  0  0  0  0999 V2000
    2.2840  -30.3820  -29.6930 C   0  0  0  0  0  0  0  0  0  0  0  0
    2.2940  -30.5100  -31.2000 C   0  0  2  0  0  0  0  0  0  0  0  0
    1.3970  -31.7200  -31.5790 C   0  0  0  0  0  0  0  0  0  0  0  0
    0.0050  -31.7100  -30.9610 C   0  0  0  0  0  0  0  0  0  0  0  0
    6.0390  -27.3170  -32.8170 C   0  0  0  0  0  0  0  0  0  0  0  0
    6.7780  -26.1730  -33.1650 C   0  0  0  0  0  0  0  0  0  0  0  0
    6.3200  -24.9070  -32.9820 C   0  0  0  0  0  0  0  0  0  0  0  0
    4.9950  -24.6180  -32.4060 C   0  0  0  0  0  0  0  0  0  0  0  0
    2.9280  -25.5440  -31.4100 C   0  0  0  0  0  0  0  0  0  0  0  0
    2.9720  -25.8750  -29.8730 C   0  0  0  0  0  0  0  0  0  0  0  0
    1.7760  -26.7240  -29.4800 C   0  0  0  0  0  0  0  0  0  0  0  0
    1.6920  -26.2760  -31.8470 C   0  0  0  0  0  0  0  0  0  0  0  0
    4.7490  -27.1240  -32.2550 C   0  0  0  0  0  0  0  0  0  0  0  0
    4.4860  -29.4840  -32.0470 C   0  0  0  0  0  0  0  0  0  0  0  0
   -2.5420  -35.7890  -29.7390 C   0  0  0  0  0  0  0  0  0  0  0  0
   -3.0700  -34.5950  -28.8930 C   0  0  0  0  0  0  0  0  0  0  0  0
   -4.5570  -34.3300  -29.3120 C   0  0  0  0  0  0  0  0  0  0  0  0
   -2.1230  -33.4610  -29.0410 N   0  0  0  0  0  0  0  0  0  0  0  0
   -2.3670  -32.0660  -28.6550 C   0  0  0  0  0  0  0  0  0  0  0  0
   -3.4340  -31.7070  -28.1580 O   0  0  0  0  0  0  0  0  0  0  0  0
   -1.3600  -31.0960  -28.8750 N   0  0  0  0  0  0  0  0  0  0  0  0
   -0.0170  -31.3910  -29.4480 C   0  0  2  0  0  0  0  0  0  0  0  0
    0.9210  -30.2110  -29.1210 C   0  0  0  0  0  0  0  0  0  0  0  0
    3.6830  -30.5750  -31.7100 N   0  0  0  0  0  0  0  0  0  0  0  0
    5.7430  -29.6920  -32.5880 N   0  0  0  0  0  0  0  0  0  0  0  0
    6.4410  -28.6170  -32.9460 C   0  0  0  0  0  0  0  0  0  0  0  0
    4.5940  -23.4740  -32.2520 O   0  0  0  0  0  0  0  0  0  0  0  0
    4.2620  -25.8070  -32.0760 N   0  0  0  0  0  0  0  0  0  0  0  0
    0.8150  -26.3700  -30.5980 C   0  0  0  0  0  0  0  0  0  0  0  0
    4.0130  -28.2080  -31.8930 N   0  0  0  0  0  0  0  0  0  0  0  0
    2.9629  -29.6001  -29.3570 H   0  0  0  0  0  0  0  0  0  0  0  0
    2.7313  -31.2858  -29.2937 H   0  0  0  0  0  0  0  0  0  0  0  0
    1.8439  -29.5994  -31.5979 H   0  0  0  0  0  0  0  0  0  0  0  0
    1.9009  -32.6323  -31.2546 H   0  0  0  0  0  0  0  0  0  0  0  0
    1.3112  -31.8312  -32.6581 H   0  0  0  0  0  0  0  0  0  0  0  0
   -0.4938  -32.6573  -31.1682 H   0  0  0  0  0  0  0  0  0  0  0  0
   -0.5749  -30.9310  -31.4478 H   0  0  0  0  0  0  0  0  0  0  0  0
    7.7646  -26.3021  -33.5869 H   0  0  0  0  0  0  0  0  0  0  0  0
    6.9406  -24.0679  -33.2571 H   0  0  0  0  0  0  0  0  0  0  0  0
    2.6172  -24.4988  -31.4651 H   0  0  0  0  0  0  0  0  0  0  0  0
    2.9692  -24.9453  -29.3016 H   0  0  0  0  0  0  0  0  0  0  0  0
    3.8827  -26.4045  -29.5890 H   0  0  0  0  0  0  0  0  0  0  0  0
    1.3886  -26.4961  -28.4865 H   0  0  0  0  0  0  0  0  0  0  0  0
    2.0451  -27.7653  -29.5182 H   0  0  0  0  0  0  0  0  0  0  0  0
    1.8501  -27.2698  -32.2522 H   0  0  0  0  0  0  0  0  0  0  0  0
    1.1884  -25.7360  -32.6478 H   0  0  0  0  0  0  0  0  0  0  0  0
   -1.5689  -36.1314  -29.3844 H   0  0  0  0  0  0  0  0  0  0  0  0
   -3.2167  -36.6436  -29.6758 H   0  0  0  0  0  0  0  0  0  0  0  0
   -2.4627  -35.5310  -30.7961 H   0  0  0  0  0  0  0  0  0  0  0  0
   -3.0567  -34.8859  -27.8413 H   0  0  0  0  0  0  0  0  0  0  0  0
   -5.0509  -33.6243  -28.6448 H   0  0  0  0  0  0  0  0  0  0  0  0
   -4.6253  -33.9597  -30.3355 H   0  0  0  0  0  0  0  0  0  0  0  0
   -5.1438  -35.2481  -29.2667 H   0  0  0  0  0  0  0  0  0  0  0  0
   -1.2079  -33.6982  -29.3952 H   0  0  0  0  0  0  0  0  0  0  0  0
   -1.5997  -30.1231  -28.7536 H   0  0  0  0  0  0  0  0  0  0  0  0
    0.3972  -32.2552  -28.9267 H   0  0  0  0  0  0  0  0  0  0  0  0
    0.4803  -29.3018  -29.5303 H   0  0  0  0  0  0  0  0  0  0  0  0
    0.9945  -30.0647  -28.0440 H   0  0  0  0  0  0  0  0  0  0  0  0
    4.1193  -31.4894  -31.7200 H   0  0  0  0  0  0  0  0  0  0  0  0
    7.4160  -28.8291  -33.3572 H   0  0  0  0  0  0  0  0  0  0  0  0
    0.3280  -25.4137  -30.3971 H   0  0  0  0  0  0  0  0  0  0  0  0
    0.0344  -27.1208  -30.6937 H   0  0  0  0  0  0  0  0  0  0  0  0
  1  2  1  0
  1 23  1  0
  1 31  1  0
  1 32  1  0
  2  3  1  0
  2 24  1  0
  2 33  1  6
  3  4  1  0
  3 34  1  0
  3 35  1  0
  4 22  1  0
  4 36  1  0
  4 37  1  0
  5  6  1  0
  5 13  2  0
  5 26  1  0
  6  7  2  0
  6 38  1  0
  7  8  1  0
  7 39  1  0
  8 27  2  0
  8 28  1  0
  9 10  1  0
  9 12  1  0
  9 28  1  0
  9 40  1  0
 10 11  1  0
 10 41  1  0
 10 42  1  0
 11 29  1  0
 11 43  1  0
 11 44  1  0
 12 29  1  0
 12 45  1  0
 12 46  1  0
 13 28  1  0
 13 30  1  0
 14 24  1  0
 14 25  1  0
 14 30  2  0
 15 16  1  0
 15 47  1  0
 15 48  1  0
 15 49  1  0
 16 17  1  0
 16 18  1  0
 16 50  1  0
 17 51  1  0
 17 52  1  0
 17 53  1  0
 18 19  1  0
 18 54  1  0
 19 20  2  0
 19 21  1  0
 21 22  1  0
 21 55  1  0
 22 23  1  0
 22 56  1  1
 23 57  1  0
 23 58  1  0
 24 59  1  0
 25 26  2  0
 26 60  1  0
 29 61  1  0
 29 62  1  0
M  END
$$$$
