SKA_ref
     RDKit          3D

 22 23  0  0  1  0  0  0  0  0999 V2000
   13.8150   23.1220   20.6900 Cl  0  0  0  0  0  0  0  0  0  0  0  0
   12.6140   21.8910   20.8950 C   0  0  0  0  0  0  0  0  0  0  0  0
   12.4290   20.9440   19.8850 C   0  0  0  0  0  0  0  0  0  0  0  0
   13.2480   20.9790   18.5930 C   0  0  0  0  0  0  0  0  0  0  0  0
   13.2030   19.6780   17.9030 N   0  0  0  0  0  0  0  0  0  0  0  0
   11.8140   19.2500   17.6740 C   0  0  0  0  0  0  0  0  0  0  0  0
   11.1810   18.8750   19.0160 C   0  0  0  0  0  0  0  0  0  0  0  0
   11.4600   19.9590   20.0640 C   0  0  0  0  0  0  0  0  0  0  0  0
   10.6970   19.9200   21.2290 C   0  0  0  0  0  0  0  0  0  0  0  0
   10.8880   20.8660   22.2300 C   0  0  0  0  0  0  0  0  0  0  0  0
   11.8480   21.8580   22.0590 C   0  0  0  0  0  0  0  0  0  0  0  0
   12.0300   23.0530   23.2930 Cl  0  0  0  0  0  0  0  0  0  0  0  0
   14.3033   21.1900   18.7549 H   0  0  0  0  0  0  0  0  0  0  0  0
   12.8489   21.7124   17.8932 H   0  0  0  0  0  0  0  0  0  0  0  0
   13.7059   18.9761   18.4376 H   0  0  0  0  0  0  0  0  0  0  0  0
   13.6870   19.7859   17.0171 H   0  0  0  0  0  0  0  0  0  0  0  0
   11.8583   18.4053   16.9855 H   0  0  0  0  0  0  0  0  0  0  0  0
   11.2941   20.0687   17.1777 H   0  0  0  0  0  0  0  0  0  0  0  0
   11.5402   17.9078   19.3670 H   0  0  0  0  0  0  0  0  0  0  0  0
   10.1154   18.8246   18.8363 H   0  0  0  0  0  0  0  0  0  0  0  0
    9.9515   19.1494   21.3648 H   0  0  0  0  0  0  0  0  0  0  0  0
   10.2936   20.8193   23.1290 H   0  0  0  0  0  0  0  0  0  0  0  0
  1  2  1  0
  2  3  2  0
  2 11  1  0
  3  4  1  0
  3  8  1  0
  4  5  1  0
  4 13  1  0
  4 14  1  0
  5  6  1  0
  5 15  1  0
  5 16  1  0
  6  7  1  0
  6 17  1  0
  6 18  1  0
  7  8  1  0
  7 19  1  0
  7 20  1  0
  8  9  2  0
  9 10  1  0
  9 21  1  0
 10 11  2  0
 10 22  1  0
 11 12  1  0
M  CHG  1   5   1
M  END
$$$$
