I2O_ref
     RDKit          3D

 51 55  0  0  1  0  0  0  0  0999 V2000
    6.7160   30.3910   30.9070 C   0  0  0  0  0  0  0  0  0  0  0  0
    5.4810   31.0160   31.2310 C   0  0  0  0  0  0  0  0  0  0  0  0
    4.3200   30.7030   30.4910 C   0  0  0  0  0  0  0  0  0  0  0  0
    4.4290   29.7660   29.4330 C   0  0  0  0  0  0  0  0  0  0  0  0
    5.6370   29.1050   29.1050 C   0  0  0  0  0  0  0  0  0  0  0  0
    6.7980   29.4660   29.8580 C   0  0  0  0  0  0  0  0  0  0  0  0
    5.4150   32.0470   32.3830 C   0  0  0  0  0  0  0  0  0  0  0  0
    5.6950   28.1280   27.8940 C   0  0  0  0  0  0  0  0  0  0  0  0
    6.6040   27.1490   27.8530 N   0  0  0  0  0  0  0  0  0  0  0  0
    6.6480   26.3060   26.6740 C   0  0  0  0  0  0  0  0  0  0  0  0
    7.0640   27.0440   25.3930 C   0  0  0  0  0  0  0  0  0  0  0  0
    8.0390   26.0590   26.0350 C   0  0  0  0  0  0  0  0  0  0  0  0
    4.9850   28.3140   26.9170 O   0  0  0  0  0  0  0  0  0  0  0  0
    3.0320   31.2990   30.7310 C   0  0  0  0  0  0  0  0  0  0  0  0
    2.8580   32.6150   30.3220 C   0  0  0  0  0  0  0  0  0  0  0  0
    1.6660   33.3110   30.4610 C   0  0  0  0  0  0  0  0  0  0  0  0
    0.5640   32.6620   31.0120 C   0  0  0  0  0  0  0  0  0  0  0  0
    0.6840   31.3000   31.4270 C   0  0  0  0  0  0  0  0  0  0  0  0
    1.9180   30.6260   31.2740 C   0  0  0  0  0  0  0  0  0  0  0  0
    1.3940   34.5770   30.1080 N   0  0  0  0  0  0  0  0  0  0  0  0
    0.1070   34.8740   30.3620 C   0  0  0  0  0  0  0  0  0  0  0  0
   -0.6050   33.7050   30.9930 C   0  0  0  0  0  0  0  0  0  0  0  0
   -0.4430   35.9340   30.0910 O   0  0  0  0  0  0  0  0  0  0  0  0
   -1.2500   34.0470   32.3570 C   0  0  0  0  0  0  0  0  0  0  0  0
   -2.6690   34.4630   31.9370 C   0  0  0  0  0  0  0  0  0  0  0  0
   -3.0390   33.3960   30.9280 C   0  0  0  0  0  0  0  0  0  0  0  0
   -1.7830   33.2770   30.0470 C   0  0  0  0  0  0  0  0  0  0  0  0
    7.6075   30.6336   31.4673 H   0  0  0  0  0  0  0  0  0  0  0  0
    3.5421   29.5371   28.8573 H   0  0  0  0  0  0  0  0  0  0  0  0
    7.7450   29.0078   29.6423 H   0  0  0  0  0  0  0  0  0  0  0  0
    4.5908   31.8128   33.0572 H   0  0  0  0  0  0  0  0  0  0  0  0
    6.3305   32.0506   32.9756 H   0  0  0  0  0  0  0  0  0  0  0  0
    5.2552   33.0489   31.9899 H   0  0  0  0  0  0  0  0  0  0  0  0
    7.0871   26.8469   28.6909 H   0  0  0  0  0  0  0  0  0  0  0  0
    6.0247   25.4254   26.7250 H   0  0  0  0  0  0  0  0  0  0  0  0
    7.2911   28.1089   25.4322 H   0  0  0  0  0  0  0  0  0  0  0  0
    6.5463   26.7676   24.4770 H   0  0  0  0  0  0  0  0  0  0  0  0
    8.2394   25.2140   25.3818 H   0  0  0  0  0  0  0  0  0  0  0  0
    8.9408   26.4674   26.4759 H   0  0  0  0  0  0  0  0  0  0  0  0
    3.6950   33.1201   29.8656 H   0  0  0  0  0  0  0  0  0  0  0  0
   -0.1602   30.7936   31.8535 H   0  0  0  0  0  0  0  0  0  0  0  0
    2.0091   29.6338   31.6571 H   0  0  0  0  0  0  0  0  0  0  0  0
    2.0546   35.2200   29.6940 H   0  0  0  0  0  0  0  0  0  0  0  0
   -0.7299   34.8133   32.9238 H   0  0  0  0  0  0  0  0  0  0  0  0
   -1.2971   33.1587   32.9893 H   0  0  0  0  0  0  0  0  0  0  0  0
   -2.6695   35.4532   31.4831 H   0  0  0  0  0  0  0  0  0  0  0  0
   -3.3577   34.4847   32.7826 H   0  0  0  0  0  0  0  0  0  0  0  0
   -3.9658   33.5503   30.3955 H   0  0  0  0  0  0  0  0  0  0  0  0
   -3.1018   32.5031   31.4808 H   0  0  0  0  0  0  0  0  0  0  0  0
   -1.6800   32.2472   29.6998 H   0  0  0  0  0  0  0  0  0  0  0  0
   -1.9064   33.8959   29.1558 H   0  0  0  0  0  0  0  0  0  0  0  0
  1  2  2  0
  1  6  1  0
  1 28  1  0
  2  3  1  0
  2  7  1  0
  3  4  2  0
  3 14  1  0
  4  5  1  0
  4 29  1  0
  5  6  2  0
  5  8  1  0
  6 30  1  0
  7 31  1  0
  7 32  1  0
  7 33  1  0
  8  9  1  0
  8 13  2  0
  9 10  1  0
  9 34  1  0
 10 11  1  0
 10 12  1  0
 10 35  1  0
 11 12  1  0
 11 36  1  0
 11 37  1  0
 12 38  1  0
 12 39  1  0
 14 15  2  0
 14 19  1  0
 15 16  1  0
 15 40  1  0
 16 17  2  0
 16 20  1  0
 17 18  1  0
 17 22  1  0
 18 19  2  0
 18 41  1  0
 19 42  1  0
 20 21  1  0
 20 43  1  0
 21 22  1  0
 21 23  2  0
 22 24  1  0
 22 27  1  0
 24 25  1  0
 24 44  1  0
 24 45  1  0
 25 26  1  0
 25 46  1  0
 25 47  1  0
 26 27  1  0
 26 48  1  0
 26 49  1  0
 27 50  1  0
 27 51  1  0
M  END
$$$$
