82D_ref
     RDKit          3D

 53 56  0  0  1  0  0  0  0  0999 V2000
  -16.7710  -24.3620   25.7200 C   0  0  0  0  0  0  0  0  0  0  0  0
  -15.8180  -25.3630   25.6630 C   0  0  0  0  0  0  0  0  0  0  0  0
  -15.3190  -25.8590   26.8490 C   0  0  0  0  0  0  0  0  0  0  0  0
  -15.7390  -25.3770   28.0700 C   0  0  0  0  0  0  0  0  0  0  0  0
  -16.6820  -24.3750   28.1540 C   0  0  0  0  0  0  0  0  0  0  0  0
  -17.4810  -23.6540   24.7150 C   0  0  0  0  0  0  0  0  0  0  0  0
  -16.0190  -23.4210   22.7010 C   0  0  0  0  0  0  0  0  0  0  0  0
  -14.3080  -24.4600   21.3450 C   0  0  0  0  0  0  0  0  0  0  0  0
  -12.4680  -26.0020   22.1760 C   0  0  0  0  0  0  0  0  0  0  0  0
  -11.8330  -27.9750   21.0230 C   0  0  0  0  0  0  0  0  0  0  0  0
  -12.7990  -27.7050   20.0830 C   0  0  0  0  0  0  0  0  0  0  0  0
  -13.5780  -26.5700   20.1950 C   0  0  0  0  0  0  0  0  0  0  0  0
  -16.5120  -25.3730   21.6390 C   0  0  0  0  0  0  0  0  0  0  0  0
  -19.1370  -26.5780   21.2080 C   0  0  0  0  0  0  0  0  0  0  0  0
  -11.6630  -27.1110   22.0830 C   0  0  0  0  0  0  0  0  0  0  0  0
  -18.2980  -22.7640   25.3870 C   0  0  0  0  0  0  0  0  0  0  0  0
  -13.4380  -25.6820   21.2440 C   0  0  0  0  0  0  0  0  0  0  0  0
  -17.1810  -23.8960   26.9630 C   0  0  0  0  0  0  0  0  0  0  0  0
  -17.3970  -23.7900   23.2290 C   0  0  1  0  0  0  0  0  0  0  0  0
  -17.6070  -25.2080   22.6630 C   0  0  1  0  0  0  0  0  0  0  0  0
  -18.8020  -22.1510   27.7400 C   0  0  0  0  0  0  0  0  0  0  0  0
  -19.9870  -25.3120   23.1360 C   0  0  0  0  0  0  0  0  0  0  0  0
  -18.1050  -22.9210   26.7260 N   0  0  0  0  0  0  0  0  0  0  0  0
  -15.4180  -24.6680   22.2650 N   0  0  0  0  0  0  0  0  0  0  0  0
  -18.9600  -25.3590   22.0420 N   0  0  0  0  0  0  0  0  0  0  0  0
  -14.5160  -26.3590   19.2610 F   0  0  0  0  0  0  0  0  0  0  0  0
  -12.1390  -24.9320   23.6770 Br  0  0  0  0  0  0  0  0  0  0  0  0
  -15.4653  -25.7507   24.7195 H   0  0  0  0  0  0  0  0  0  0  0  0
  -14.5759  -26.6347   26.8136 H   0  0  0  0  0  0  0  0  0  0  0  0
  -15.3201  -25.7812   28.9791 H   0  0  0  0  0  0  0  0  0  0  0  0
  -17.0034  -23.9935   29.1123 H   0  0  0  0  0  0  0  0  0  0  0  0
  -15.3793  -22.8963   23.4135 H   0  0  0  0  0  0  0  0  0  0  0  0
  -16.0980  -22.7564   21.8403 H   0  0  0  0  0  0  0  0  0  0  0  0
  -14.6567  -24.1458   20.3585 H   0  0  0  0  0  0  0  0  0  0  0  0
  -13.6845  -23.6404   21.7068 H   0  0  0  0  0  0  0  0  0  0  0  0
  -11.2126  -28.8550   20.9314 H   0  0  0  0  0  0  0  0  0  0  0  0
  -12.9319  -28.3755   19.2494 H   0  0  0  0  0  0  0  0  0  0  0  0
  -16.7491  -24.9610   20.6555 H   0  0  0  0  0  0  0  0  0  0  0  0
  -16.2457  -26.4155   21.4578 H   0  0  0  0  0  0  0  0  0  0  0  0
  -20.1730  -26.5974   20.8744 H   0  0  0  0  0  0  0  0  0  0  0  0
  -18.4784  -26.5101   20.3421 H   0  0  0  0  0  0  0  0  0  0  0  0
  -18.9086  -27.4361   21.8210 H   0  0  0  0  0  0  0  0  0  0  0  0
  -10.9048  -27.3022   22.8272 H   0  0  0  0  0  0  0  0  0  0  0  0
  -19.0032  -22.0333   25.0205 H   0  0  0  0  0  0  0  0  0  0  0  0
  -18.1062  -23.0783   22.8009 H   0  0  0  0  0  0  0  0  0  0  0  0
  -17.5245  -25.9966   23.4154 H   0  0  0  0  0  0  0  0  0  0  0  0
  -19.3201  -22.8302   28.4177 H   0  0  0  0  0  0  0  0  0  0  0  0
  -18.0782  -21.5620   28.3049 H   0  0  0  0  0  0  0  0  0  0  0  0
  -19.5317  -21.4808   27.2846 H   0  0  0  0  0  0  0  0  0  0  0  0
  -20.0152  -24.3004   23.5402 H   0  0  0  0  0  0  0  0  0  0  0  0
  -20.9535  -25.5631   22.7132 H   0  0  0  0  0  0  0  0  0  0  0  0
  -19.7253  -26.0436   23.9034 H   0  0  0  0  0  0  0  0  0  0  0  0
  -19.1176  -24.5709   21.4214 H   0  0  0  0  0  0  0  0  0  0  0  0
  1  2  2  0
  1  6  1  0
  1 18  1  0
  2  3  1  0
  2 28  1  0
  3  4  2  0
  3 29  1  0
  4  5  1  0
  4 30  1  0
  5 18  2  0
  5 31  1  0
  6 16  2  0
  6 19  1  0
  7 19  1  0
  7 24  1  0
  7 32  1  0
  7 33  1  0
  8 17  1  0
  8 24  1  0
  8 34  1  0
  8 35  1  0
  9 15  2  0
  9 17  1  0
  9 27  1  0
 10 11  2  0
 10 15  1  0
 10 36  1  0
 11 12  1  0
 11 37  1  0
 12 17  2  0
 12 26  1  0
 13 20  1  0
 13 24  1  0
 13 38  1  0
 13 39  1  0
 14 25  1  0
 14 40  1  0
 14 41  1  0
 14 42  1  0
 15 43  1  0
 16 23  1  0
 16 44  1  0
 18 23  1  0
 19 20  1  0
 19 45  1  6
 20 25  1  0
 20 46  1  1
 21 23  1  0
 21 47  1  0
 21 48  1  0
 21 49  1  0
 22 25  1  0
 22 50  1  0
 22 51  1  0
 22 52  1  0
 25 53  1  0
M  CHG  1  25   1
M  END
$$$$
