D46_ref
     RDKit          3D

 48 51  0  0  1  0  0  0  0  0999 V2000
    3.3670    8.4230   25.9140 C   0  0  0  0  0  0  0  0  0  0  0  0
   13.8620    7.6460   27.0720 Cl  0  0  0  0  0  0  0  0  0  0  0  0
    4.6990    8.5750   25.5300 C   0  0  0  0  0  0  0  0  0  0  0  0
    5.2140    7.8230   24.4750 C   0  0  0  0  0  0  0  0  0  0  0  0
    4.3960    6.9030   23.8050 C   0  0  0  0  0  0  0  0  0  0  0  0
    3.0550    6.7280   24.2160 C   0  0  0  0  0  0  0  0  0  0  0  0
    2.5660    7.4890   25.2700 C   0  0  0  0  0  0  0  0  0  0  0  0
    6.6860    8.0470   24.0690 C   0  0  0  0  0  0  0  0  0  0  0  0
    7.5760    8.0490   25.2290 N   0  0  0  0  0  0  0  0  0  0  0  0
    8.8190    8.5470   25.0410 C   0  0  0  0  0  0  0  0  0  0  0  0
    9.9130    8.1020   25.9860 C   0  0  0  0  0  0  0  0  0  0  0  0
    9.1290    9.2180   24.0510 O   0  0  0  0  0  0  0  0  0  0  0  0
    4.9640    6.1220   22.7230 N   0  0  0  0  0  0  0  0  0  0  0  0
    5.0180    4.7950   22.6790 C   0  0  0  0  0  0  0  0  0  0  0  0
    5.9010    4.2450   21.6130 C   0  0  0  0  0  0  0  0  0  0  0  0
    4.4500    4.0580   23.4800 O   0  0  0  0  0  0  0  0  0  0  0  0
   11.4690    8.5570   25.4480 S   0  0  0  0  0  0  0  0  0  0  0  0
   12.1270    7.7790   26.7960 C   0  0  0  0  0  0  0  0  0  0  0  0
   11.1980    7.2120   27.6290 C   0  0  0  0  0  0  0  0  0  0  0  0
    9.8930    7.3940   27.1460 C   0  0  0  0  0  0  0  0  0  0  0  0
    6.5240    5.0240   20.7240 N   0  0  0  0  0  0  0  0  0  0  0  0
    7.2990    4.2280   19.9350 C   0  0  0  0  0  0  0  0  0  0  0  0
    7.2170    2.8870   20.2200 C   0  0  0  0  0  0  0  0  0  0  0  0
    6.2020    2.5620   21.5700 S   0  0  0  0  0  0  0  0  0  0  0  0
    8.0050    1.8190   19.4360 C   0  0  0  0  0  0  0  0  0  0  0  0
    8.5390    2.3280   18.1060 N   0  0  0  0  0  0  0  0  0  0  0  0
    9.1010    3.7290   18.1100 C   0  0  0  0  0  0  0  0  0  0  0  0
    8.1500    4.7690   18.7650 C   0  0  0  0  0  0  0  0  0  0  0  0
    9.4650    1.3970   17.4320 C   0  0  0  0  0  0  0  0  0  0  0  0
    2.9627    9.0285   26.7107 H   0  0  0  0  0  0  0  0  0  0  0  0
    5.3150    9.3009   26.0395 H   0  0  0  0  0  0  0  0  0  0  0  0
    2.4138    6.0134   23.7206 H   0  0  0  0  0  0  0  0  0  0  0  0
    1.5397    7.3655   25.5791 H   0  0  0  0  0  0  0  0  0  0  0  0
    6.7210    8.9831   23.5076 H   0  0  0  0  0  0  0  0  0  0  0  0
    7.0438    7.2677   23.3951 H   0  0  0  0  0  0  0  0  0  0  0  0
    7.3937    7.3937   25.9784 H   0  0  0  0  0  0  0  0  0  0  0  0
    5.4909    6.6355   22.0295 H   0  0  0  0  0  0  0  0  0  0  0  0
   11.4366    6.6522   28.5120 H   0  0  0  0  0  0  0  0  0  0  0  0
    9.0140    7.0242   27.6445 H   0  0  0  0  0  0  0  0  0  0  0  0
    7.3692    0.9595   19.2359 H   0  0  0  0  0  0  0  0  0  0  0  0
    8.8405    1.4856   20.0508 H   0  0  0  0  0  0  0  0  0  0  0  0
    9.3319    4.0276   17.0921 H   0  0  0  0  0  0  0  0  0  0  0  0
   10.0591    3.7225   18.6322 H   0  0  0  0  0  0  0  0  0  0  0  0
    8.6962    5.6804   19.0070 H   0  0  0  0  0  0  0  0  0  0  0  0
    7.4589    5.0828   17.9818 H   0  0  0  0  0  0  0  0  0  0  0  0
    9.7005    1.7552   16.4299 H   0  0  0  0  0  0  0  0  0  0  0  0
   10.3953    1.2984   17.9931 H   0  0  0  0  0  0  0  0  0  0  0  0
    9.0162    0.4078   17.3356 H   0  0  0  0  0  0  0  0  0  0  0  0
  1  3  2  0
  1  7  1  0
  1 30  1  0
  2 18  1  0
  3  4  1  0
  3 31  1  0
  4  5  2  0
  4  8  1  0
  5  6  1  0
  5 13  1  0
  6  7  2  0
  6 32  1  0
  7 33  1  0
  8  9  1  0
  8 34  1  0
  8 35  1  0
  9 10  1  0
  9 36  1  0
 10 11  1  0
 10 12  2  0
 11 17  1  0
 11 20  2  0
 13 14  1  0
 13 37  1  0
 14 15  1  0
 14 16  2  0
 15 21  2  0
 15 24  1  0
 17 18  1  0
 18 19  2  0
 19 20  1  0
 19 38  1  0
 20 39  1  0
 21 22  1  0
 22 23  2  0
 22 28  1  0
 23 24  1  0
 23 25  1  0
 25 26  1  0
 25 40  1  0
 25 41  1  0
 26 27  1  0
 26 29  1  0
 27 28  1  0
 27 42  1  0
 27 43  1  0
 28 44  1  0
 28 45  1  0
 29 46  1  0
 29 47  1  0
 29 48  1  0
M  END
$$$$
