D92_ref
     RDKit          3D

 58 62  0  0  1  0  0  0  0  0999 V2000
   14.0770    7.7180   26.5680 Cl  0  0  0  0  0  0  0  0  0  0  0  0
   12.3270    7.8370   26.5040 C   0  0  0  0  0  0  0  0  0  0  0  0
   11.6240    7.5030   27.6670 C   0  0  0  0  0  0  0  0  0  0  0  0
   10.2400    7.5420   27.7080 C   0  0  0  0  0  0  0  0  0  0  0  0
    9.5830    7.9160   26.5340 C   0  0  0  0  0  0  0  0  0  0  0  0
    8.2360    8.0270   26.3520 N   0  0  0  0  0  0  0  0  0  0  0  0
   11.7000    8.2250   25.3240 C   0  0  0  0  0  0  0  0  0  0  0  0
   10.2930    8.2640   25.3350 C   0  0  0  0  0  0  0  0  0  0  0  0
    9.3760    8.5820   24.3380 C   0  0  0  0  0  0  0  0  0  0  0  0
    8.1160    8.4280   24.9900 C   0  0  0  0  0  0  0  0  0  0  0  0
    6.7270    8.7670   24.4790 C   0  0  0  0  0  0  0  0  0  0  0  0
    5.7740    8.6560   25.2400 O   0  0  0  0  0  0  0  0  0  0  0  0
    6.5760    9.1670   23.2220 N   0  0  0  0  0  0  0  0  0  0  0  0
    5.2150    9.1900   22.6150 C   0  0  1  0  0  0  0  0  0  0  0  0
    5.3070    9.8700   21.2070 C   0  0  0  0  0  0  0  0  0  0  0  0
    4.2090    9.4060   20.2050 C   0  0  0  0  0  0  0  0  0  0  0  0
    2.9310    8.9470   20.9560 C   0  0  0  0  0  0  0  0  0  0  0  0
    3.1650    7.7310   21.9360 C   0  0  0  0  0  0  0  0  0  0  0  0
    4.6070    7.7120   22.5180 C   0  0  1  0  0  0  0  0  0  0  0  0
    5.3980    6.7500   21.7000 N   0  0  0  0  0  0  0  0  0  0  0  0
    5.4950    5.4190   21.8810 C   0  0  0  0  0  0  0  0  0  0  0  0
    4.9370    4.8300   22.7780 O   0  0  0  0  0  0  0  0  0  0  0  0
    6.3900    4.6510   20.9340 C   0  0  0  0  0  0  0  0  0  0  0  0
    6.5400    2.9290   21.0340 S   0  0  0  0  0  0  0  0  0  0  0  0
    7.6460    3.0170   19.7250 C   0  0  0  0  0  0  0  0  0  0  0  0
    8.3200    1.7890   19.1180 C   0  0  0  0  0  0  0  0  0  0  0  0
    8.9010    2.0930   17.7690 N   0  0  0  0  0  0  0  0  0  0  0  0
    9.7450    1.0050   17.2170 C   0  0  0  0  0  0  0  0  0  0  0  0
    9.5740    3.4330   17.5840 C   0  0  0  0  0  0  0  0  0  0  0  0
    8.8020    4.6480   18.1630 C   0  0  0  0  0  0  0  0  0  0  0  0
    7.8530    4.3070   19.3040 C   0  0  0  0  0  0  0  0  0  0  0  0
    7.1460    5.2510   19.9800 N   0  0  0  0  0  0  0  0  0  0  0  0
   12.1658    7.2011   28.5512 H   0  0  0  0  0  0  0  0  0  0  0  0
    9.7003    7.2838   28.6069 H   0  0  0  0  0  0  0  0  0  0  0  0
    7.4622    7.8637   26.9823 H   0  0  0  0  0  0  0  0  0  0  0  0
   12.2700    8.4815   24.4446 H   0  0  0  0  0  0  0  0  0  0  0  0
    9.5702    8.9920   23.4004 H   0  0  0  0  0  0  0  0  0  0  0  0
    7.3737    9.1702   22.6029 H   0  0  0  0  0  0  0  0  0  0  0  0
    4.5335    9.7798   23.2307 H   0  0  0  0  0  0  0  0  0  0  0  0
    6.2577    9.6268   20.7286 H   0  0  0  0  0  0  0  0  0  0  0  0
    5.2543   10.9523   21.3162 H   0  0  0  0  0  0  0  0  0  0  0  0
    4.5804    8.5784   19.5986 H   0  0  0  0  0  0  0  0  0  0  0  0
    3.9738   10.2105   19.5069 H   0  0  0  0  0  0  0  0  0  0  0  0
    2.1511    8.6900   20.2383 H   0  0  0  0  0  0  0  0  0  0  0  0
    2.5391    9.7928   21.5239 H   0  0  0  0  0  0  0  0  0  0  0  0
    2.9184    6.7901   21.4400 H   0  0  0  0  0  0  0  0  0  0  0  0
    2.4464    7.7856   22.7549 H   0  0  0  0  0  0  0  0  0  0  0  0
    4.5418    7.2831   23.5198 H   0  0  0  0  0  0  0  0  0  0  0  0
    5.7899    7.1294   20.8512 H   0  0  0  0  0  0  0  0  0  0  0  0
    7.6044    0.9765   19.0046 H   0  0  0  0  0  0  0  0  0  0  0  0
    9.1147    1.4543   19.7826 H   0  0  0  0  0  0  0  0  0  0  0  0
    9.9640    1.2186   16.1747 H   0  0  0  0  0  0  0  0  0  0  0  0
   10.6783    0.9447   17.7747 H   0  0  0  0  0  0  0  0  0  0  0  0
    9.2369    0.0421   17.2685 H   0  0  0  0  0  0  0  0  0  0  0  0
    9.8217    3.5930   16.5357 H   0  0  0  0  0  0  0  0  0  0  0  0
   10.5399    3.3763   18.0888 H   0  0  0  0  0  0  0  0  0  0  0  0
    8.1849    5.0275   17.3482 H   0  0  0  0  0  0  0  0  0  0  0  0
    9.4847    5.4577   18.4012 H   0  0  0  0  0  0  0  0  0  0  0  0
  1  2  1  0
  2  3  2  0
  2  7  1  0
  3  4  1  0
  3 33  1  0
  4  5  2  0
  4 34  1  0
  5  6  1  0
  5  8  1  0
  6 10  1  0
  6 35  1  0
  7  8  2  0
  7 36  1  0
  8  9  1  0
  9 10  2  0
  9 37  1  0
 10 11  1  0
 11 12  2  0
 11 13  1  0
 13 14  1  0
 13 38  1  0
 14 15  1  0
 14 19  1  0
 14 39  1  1
 15 16  1  0
 15 40  1  0
 15 41  1  0
 16 17  1  0
 16 42  1  0
 16 43  1  0
 17 18  1  0
 17 44  1  0
 17 45  1  0
 18 19  1  0
 18 46  1  0
 18 47  1  0
 19 20  1  0
 19 48  1  1
 20 21  1  0
 20 49  1  0
 21 22  2  0
 21 23  1  0
 23 24  1  0
 23 32  2  0
 24 25  1  0
 25 26  1  0
 25 31  2  0
 26 27  1  0
 26 50  1  0
 26 51  1  0
 27 28  1  0
 27 29  1  0
 28 52  1  0
 28 53  1  0
 28 54  1  0
 29 30  1  0
 29 55  1  0
 29 56  1  0
 30 31  1  0
 30 57  1  0
 30 58  1  0
 31 32  1  0
M  END
$$$$
