46K_ref
     RDKit          3D

 41 44  0  0  1  0  0  0  0  0999 V2000
    4.8960  -12.5290  -30.4370 C   0  0  0  0  0  0  0  0  0  0  0  0
    6.1690  -12.3040  -28.2470 N   0  0  0  0  0  0  0  0  0  0  0  0
    4.7340  -14.0630  -28.5830 O   0  0  0  0  0  0  0  0  0  0  0  0
    6.9450  -10.8830  -28.6660 S   0  0  0  0  0  0  0  0  0  0  0  0
    5.2250  -13.0370  -29.0550 C   0  0  0  0  0  0  0  0  0  0  0  0
    2.7140   -6.7870  -28.8050 N   0  0  0  0  0  0  0  0  0  0  0  0
    7.5600  -10.9490  -29.9580 O   0  0  0  0  0  0  0  0  0  0  0  0
   -0.6680   -7.7500  -25.5030 S   0  0  0  0  0  0  0  0  0  0  0  0
    5.6780   -9.7950  -28.7580 C   0  0  0  0  0  0  0  0  0  0  0  0
   -0.0380   -3.5820  -28.3810 N   0  0  0  0  0  0  0  0  0  0  0  0
    7.7460  -10.4270  -27.5770 O   0  0  0  0  0  0  0  0  0  0  0  0
    5.5570   -8.9290  -29.8800 C   0  0  0  0  0  0  0  0  0  0  0  0
   -2.7810   -6.4720  -24.5860 N   0  0  0  0  0  0  0  0  0  0  0  0
    1.8340   -4.2940  -29.5920 O   0  0  0  0  0  0  0  0  0  0  0  0
    4.5780   -7.9440  -29.8980 C   0  0  0  0  0  0  0  0  0  0  0  0
    3.6810   -7.8110  -28.8290 C   0  0  0  0  0  0  0  0  0  0  0  0
    1.6660   -6.6810  -27.9320 C   0  0  0  0  0  0  0  0  0  0  0  0
    0.8300   -5.6620  -27.9260 C   0  0  0  0  0  0  0  0  0  0  0  0
    0.9640   -4.4550  -28.7410 C   0  0  0  0  0  0  0  0  0  0  0  0
   -0.8510   -4.1690  -27.3870 C   0  0  0  0  0  0  0  0  0  0  0  0
   -1.9230   -3.5990  -26.7600 C   0  0  0  0  0  0  0  0  0  0  0  0
   -2.6360   -4.3610  -25.8070 C   0  0  0  0  0  0  0  0  0  0  0  0
   -2.1710   -5.6220  -25.5370 C   0  0  0  0  0  0  0  0  0  0  0  0
   -2.0880   -7.5600  -24.4930 C   0  0  0  0  0  0  0  0  0  0  0  0
   -1.0260   -6.1860  -26.1390 C   0  0  0  0  0  0  0  0  0  0  0  0
   -0.3460   -5.4700  -27.0900 C   0  0  0  0  0  0  0  0  0  0  0  0
    3.8160   -8.6640  -27.7030 C   0  0  0  0  0  0  0  0  0  0  0  0
    4.7900   -9.6430  -27.7080 C   0  0  0  0  0  0  0  0  0  0  0  0
    4.2127  -13.2159  -30.9375 H   0  0  0  0  0  0  0  0  0  0  0  0
    4.4008  -11.5599  -30.3946 H   0  0  0  0  0  0  0  0  0  0  0  0
    5.7890  -12.4508  -31.0559 H   0  0  0  0  0  0  0  0  0  0  0  0
    2.7939   -6.1078  -29.5506 H   0  0  0  0  0  0  0  0  0  0  0  0
   -0.1674   -2.6652  -28.7901 H   0  0  0  0  0  0  0  0  0  0  0  0
    6.2285   -9.0106  -30.7207 H   0  0  0  0  0  0  0  0  0  0  0  0
    4.5038   -7.2919  -30.7554 H   0  0  0  0  0  0  0  0  0  0  0  0
    1.5242   -7.5201  -27.2731 H   0  0  0  0  0  0  0  0  0  0  0  0
   -2.2310   -2.5914  -26.9791 H   0  0  0  0  0  0  0  0  0  0  0  0
   -3.4967   -3.9523  -25.2977 H   0  0  0  0  0  0  0  0  0  0  0  0
   -2.3607   -8.3487  -23.8072 H   0  0  0  0  0  0  0  0  0  0  0  0
    3.2069   -8.5376  -26.8384 H   0  0  0  0  0  0  0  0  0  0  0  0
    4.8813  -10.2798  -26.8420 H   0  0  0  0  0  0  0  0  0  0  0  0
  1  5  1  0
  1 29  1  0
  1 30  1  0
  1 31  1  0
  2  4  1  0
  2  5  1  0
  3  5  2  0
  4  7  2  0
  4  9  1  0
  4 11  2  0
  6 16  1  0
  6 17  1  0
  6 32  1  0
  8 24  1  0
  8 25  1  0
  9 12  2  0
  9 28  1  0
 10 19  1  0
 10 20  1  0
 10 33  1  0
 12 15  1  0
 12 34  1  0
 13 23  1  0
 13 24  2  0
 14 19  2  0
 15 16  2  0
 15 35  1  0
 16 27  1  0
 17 18  2  0
 17 36  1  0
 18 19  1  0
 18 26  1  0
 20 21  1  0
 20 26  2  0
 21 22  2  0
 21 37  1  0
 22 23  1  0
 22 38  1  0
 23 25  2  0
 24 39  1  0
 25 26  1  0
 27 28  2  0
 27 40  1  0
 28 41  1  0
M  CHG  1   2  -1
M  END
$$$$
