IOK_ref
     RDKit          3D

 56 59  0  0  1  0  0  0  0  0999 V2000
   38.7400   13.2970   48.7910 C   0  0  0  0  0  0  0  0  0  0  0  0
   39.0530   12.8120   47.5220 C   0  0  0  0  0  0  0  0  0  0  0  0
   40.3560   12.3810   47.2520 C   0  0  0  0  0  0  0  0  0  0  0  0
   41.3330   12.4600   48.2510 C   0  0  0  0  0  0  0  0  0  0  0  0
   42.5830   12.0150   48.0260 O   0  0  0  0  0  0  0  0  0  0  0  0
   41.0150   12.9350   49.5250 C   0  0  0  0  0  0  0  0  0  0  0  0
   39.7080   13.3660   49.7940 C   0  0  0  0  0  0  0  0  0  0  0  0
   37.3360   13.7630   49.1390 C   0  0  0  0  0  0  0  0  0  0  0  0
   37.2080   13.7040   50.6770 C   0  0  0  0  0  0  0  0  0  0  0  0
   35.7710   14.0080   51.1460 C   0  0  1  0  0  0  0  0  0  0  0  0
   35.1790   12.7180   51.7710 C   0  0  0  0  0  0  0  0  0  0  0  0
   35.8710   14.9890   52.2430 N   0  0  0  0  0  0  0  0  0  0  0  0
   35.1120   16.0730   52.3440 C   0  0  0  0  0  0  0  0  0  0  0  0
   34.2360   16.3540   51.4910 O   0  0  0  0  0  0  0  0  0  0  0  0
   35.3520   16.9700   53.5320 C   0  0  0  0  0  0  0  0  0  0  0  0
   36.6540   16.6370   54.2310 C   0  0  0  0  0  0  0  0  0  0  0  0
   36.8280   16.2480   55.5860 C   0  0  0  0  0  0  0  0  0  0  0  0
   38.1490   16.0310   55.8050 N   0  0  0  0  0  0  0  0  0  0  0  0
   38.8360   16.2810   54.6410 C   0  0  0  0  0  0  0  0  0  0  0  0
   40.2060   16.2210   54.3740 C   0  0  0  0  0  0  0  0  0  0  0  0
   40.6480   16.5360   53.0800 C   0  0  0  0  0  0  0  0  0  0  0  0
   39.7140   16.9070   52.0860 C   0  0  0  0  0  0  0  0  0  0  0  0
   38.3580   16.9710   52.3670 C   0  0  0  0  0  0  0  0  0  0  0  0
   37.9230   16.6510   53.6740 C   0  0  0  0  0  0  0  0  0  0  0  0
   35.8180   16.1600   56.6780 C   0  0  0  0  0  0  0  0  0  0  0  0
   34.4790   15.8410   56.4890 C   0  0  0  0  0  0  0  0  0  0  0  0
   33.5910   15.7970   57.5840 C   0  0  0  0  0  0  0  0  0  0  0  0
   34.0570   16.0400   58.8710 C   0  0  0  0  0  0  0  0  0  0  0  0
   35.3990   16.3730   59.0640 C   0  0  0  0  0  0  0  0  0  0  0  0
   36.2720   16.4270   57.9770 C   0  0  0  0  0  0  0  0  0  0  0  0
   38.2969   12.7622   46.7525 H   0  0  0  0  0  0  0  0  0  0  0  0
   40.5748   11.9793   46.2757 H   0  0  0  0  0  0  0  0  0  0  0  0
   42.8293   12.2766   47.1162 H   0  0  0  0  0  0  0  0  0  0  0  0
   41.7703   12.9751   50.2969 H   0  0  0  0  0  0  0  0  0  0  0  0
   39.6036   13.7337   50.7994 H   0  0  0  0  0  0  0  0  0  0  0  0
   36.6073   13.0970   48.6738 H   0  0  0  0  0  0  0  0  0  0  0  0
   37.1668   14.7711   48.7573 H   0  0  0  0  0  0  0  0  0  0  0  0
   37.8352   14.4944   51.0897 H   0  0  0  0  0  0  0  0  0  0  0  0
   37.5563   12.7517   51.0868 H   0  0  0  0  0  0  0  0  0  0  0  0
   35.1409   14.3475   50.3193 H   0  0  0  0  0  0  0  0  0  0  0  0
   34.1605   12.8779   52.1279 H   0  0  0  0  0  0  0  0  0  0  0  0
   35.1427   11.9133   51.0370 H   0  0  0  0  0  0  0  0  0  0  0  0
   35.7802   12.3475   52.6034 H   0  0  0  0  0  0  0  0  0  0  0  0
   36.5753   14.8221   52.9467 H   0  0  0  0  0  0  0  0  0  0  0  0
   34.4697   17.0075   54.1588 H   0  0  0  0  0  0  0  0  0  0  0  0
   35.4434   17.9826   53.1401 H   0  0  0  0  0  0  0  0  0  0  0  0
   38.5193   15.7510   56.7014 H   0  0  0  0  0  0  0  0  0  0  0  0
   40.9174   15.9373   55.1360 H   0  0  0  0  0  0  0  0  0  0  0  0
   41.7017   16.4950   52.8437 H   0  0  0  0  0  0  0  0  0  0  0  0
   40.0648   17.1507   51.0936 H   0  0  0  0  0  0  0  0  0  0  0  0
   37.6544   17.2756   51.6182 H   0  0  0  0  0  0  0  0  0  0  0  0
   34.0958   15.5556   55.5232 H   0  0  0  0  0  0  0  0  0  0  0  0
   32.5538   15.5413   57.4260 H   0  0  0  0  0  0  0  0  0  0  0  0
   33.3899   16.0010   59.7135 H   0  0  0  0  0  0  0  0  0  0  0  0
   35.7627   16.5816   60.0593 H   0  0  0  0  0  0  0  0  0  0  0  0
   37.3019   16.6914   58.1666 H   0  0  0  0  0  0  0  0  0  0  0  0
  1  2  2  0
  1  7  1  0
  1  8  1  0
  2  3  1  0
  2 31  1  0
  3  4  2  0
  3 32  1  0
  4  5  1  0
  4  6  1  0
  5 33  1  0
  6  7  2  0
  6 34  1  0
  7 35  1  0
  8  9  1  0
  8 36  1  0
  8 37  1  0
  9 10  1  0
  9 38  1  0
  9 39  1  0
 10 11  1  0
 10 12  1  0
 10 40  1  6
 11 41  1  0
 11 42  1  0
 11 43  1  0
 12 13  1  0
 12 44  1  0
 13 14  2  0
 13 15  1  0
 15 16  1  0
 15 45  1  0
 15 46  1  0
 16 17  2  0
 16 24  1  0
 17 18  1  0
 17 25  1  0
 18 19  1  0
 18 47  1  0
 19 20  2  0
 19 24  1  0
 20 21  1  0
 20 48  1  0
 21 22  2  0
 21 49  1  0
 22 23  1  0
 22 50  1  0
 23 24  2  0
 23 51  1  0
 25 26  2  0
 25 30  1  0
 26 27  1  0
 26 52  1  0
 27 28  2  0
 27 53  1  0
 28 29  1  0
 28 54  1  0
 29 30  2  0
 29 55  1  0
 30 56  1  0
M  END
$$$$
