BKJ_ref
     RDKit          3D

 62 67  0  0  1  0  0  0  0  0999 V2000
   30.1140   18.6350   12.2400 C   0  0  0  0  0  0  0  0  0  0  0  0
   26.6910   13.5870   13.6970 C   0  0  0  0  0  0  0  0  0  0  0  0
   27.6690   14.4590   12.9130 C   0  0  0  0  0  0  0  0  0  0  0  0
   29.0600   14.2690   13.4580 C   0  0  0  0  0  0  0  0  0  0  0  0
   29.4500   13.3140   14.3290 C   0  0  0  0  0  0  0  0  0  0  0  0
   30.8300   13.5140   14.5410 C   0  0  0  0  0  0  0  0  0  0  0  0
   30.1760   16.1610   12.2500 C   0  0  0  0  0  0  0  0  0  0  0  0
   30.0830   17.4020   13.1410 C   0  0  0  0  0  0  0  0  0  0  0  0
   27.2950    9.8500   14.1730 C   0  0  0  0  0  0  0  0  0  0  0  0
   31.5940   17.4980   10.6940 C   0  0  0  0  0  0  0  0  0  0  0  0
   31.4960   16.1700   11.4680 C   0  0  0  0  0  0  0  0  0  0  0  0
   31.7660   12.7830   15.3990 C   0  0  0  0  0  0  0  0  0  0  0  0
   31.4520   12.5680   16.7300 C   0  0  0  0  0  0  0  0  0  0  0  0
   26.7000   11.1690   13.7540 C   0  0  0  0  0  0  0  0  0  0  0  0
   32.3560   11.8860   17.5370 C   0  0  0  0  0  0  0  0  0  0  0  0
   33.5390   11.4310   17.0250 C   0  0  0  0  0  0  0  0  0  0  0  0
   33.8830   11.6430   15.6760 C   0  0  0  0  0  0  0  0  0  0  0  0
   32.9840   12.3350   14.8350 C   0  0  0  0  0  0  0  0  0  0  0  0
   33.3490   12.5350   13.4740 C   0  0  0  0  0  0  0  0  0  0  0  0
   35.3860   11.4310   13.7770 C   0  0  0  0  0  0  0  0  0  0  0  0
   35.0990   11.1890   15.1150 C   0  0  0  0  0  0  0  0  0  0  0  0
   36.6760   10.9290   13.2030 C   0  0  0  0  0  0  0  0  0  0  0  0
   37.7700   10.4030   13.9290 C   0  0  0  0  0  0  0  0  0  0  0  0
   37.0310   10.8820   11.8770 C   0  0  0  0  0  0  0  0  0  0  0  0
   39.0430   10.1210   10.5540 C   0  0  0  0  0  0  0  0  0  0  0  0
   28.5210   12.2820   14.9230 C   0  0  0  0  0  0  0  0  0  0  0  0
   31.2260   14.5390   13.8390 N   0  0  0  0  0  0  0  0  0  0  0  0
   30.1310   15.0150   13.1470 N   0  0  0  0  0  0  0  0  0  0  0  0
   34.5060   12.0890   13.0020 N   0  0  0  0  0  0  0  0  0  0  0  0
   38.7180   10.0660   13.0870 N   0  0  0  0  0  0  0  0  0  0  0  0
   38.2770   10.3530   11.7880 N   0  0  0  0  0  0  0  0  0  0  0  0
   27.2940   12.3110   14.1100 N   0  0  0  0  0  0  0  0  0  0  0  0
   31.3920   18.6070   11.5940 O   0  0  0  0  0  0  0  0  0  0  0  0
   25.7030   11.2100   13.0590 O   0  0  0  0  0  0  0  0  0  0  0  0
   30.0308   19.5464   12.8332 H   0  0  0  0  0  0  0  0  0  0  0  0
   29.2975   18.6415   11.5151 H   0  0  0  0  0  0  0  0  0  0  0  0
   25.7340   13.5105   13.1782 H   0  0  0  0  0  0  0  0  0  0  0  0
   26.4554   14.1112   14.6244 H   0  0  0  0  0  0  0  0  0  0  0  0
   27.3417   15.4984   12.9402 H   0  0  0  0  0  0  0  0  0  0  0  0
   27.6532   14.1619   11.8706 H   0  0  0  0  0  0  0  0  0  0  0  0
   29.3163   16.0549   11.5852 H   0  0  0  0  0  0  0  0  0  0  0  0
   29.1150   17.4172   13.6453 H   0  0  0  0  0  0  0  0  0  0  0  0
   30.8456   17.4289   13.9224 H   0  0  0  0  0  0  0  0  0  0  0  0
   26.6335    9.0316   13.8878 H   0  0  0  0  0  0  0  0  0  0  0  0
   28.2557    9.6823   13.6879 H   0  0  0  0  0  0  0  0  0  0  0  0
   27.4170    9.8038   15.2527 H   0  0  0  0  0  0  0  0  0  0  0  0
   30.8582   17.5368    9.8884 H   0  0  0  0  0  0  0  0  0  0  0  0
   32.5747   17.5930   10.2272 H   0  0  0  0  0  0  0  0  0  0  0  0
   31.4900   15.3605   10.7375 H   0  0  0  0  0  0  0  0  0  0  0  0
   32.3744   16.0129   12.0957 H   0  0  0  0  0  0  0  0  0  0  0  0
   30.5192   12.9205   17.1459 H   0  0  0  0  0  0  0  0  0  0  0  0
   32.1203   11.7155   18.5771 H   0  0  0  0  0  0  0  0  0  0  0  0
   34.2263   10.8967   17.6652 H   0  0  0  0  0  0  0  0  0  0  0  0
   32.7093   12.9999   12.7434 H   0  0  0  0  0  0  0  0  0  0  0  0
   35.7873   10.6527   15.7502 H   0  0  0  0  0  0  0  0  0  0  0  0
   37.8687   10.2791   14.9972 H   0  0  0  0  0  0  0  0  0  0  0  0
   36.4952   11.1803   10.9880 H   0  0  0  0  0  0  0  0  0  0  0  0
   39.7450    9.3015   10.7131 H   0  0  0  0  0  0  0  0  0  0  0  0
   38.3833    9.8627    9.7469 H   0  0  0  0  0  0  0  0  0  0  0  0
   39.5950   11.0260   10.2999 H   0  0  0  0  0  0  0  0  0  0  0  0
   28.2662   12.5335   15.9530 H   0  0  0  0  0  0  0  0  0  0  0  0
   29.0281   11.3206   14.9927 H   0  0  0  0  0  0  0  0  0  0  0  0
  1  8  1  0
  1 33  1  0
  1 35  1  0
  1 36  1  0
  2  3  1  0
  2 32  1  0
  2 37  1  0
  2 38  1  0
  3  4  1  0
  3 39  1  0
  3 40  1  0
  4  5  2  0
  4 28  1  0
  5  6  1  0
  5 26  1  0
  6 12  1  0
  6 27  2  0
  7  8  1  0
  7 11  1  0
  7 28  1  0
  7 41  1  0
  8 42  1  0
  8 43  1  0
  9 14  1  0
  9 44  1  0
  9 45  1  0
  9 46  1  0
 10 11  1  0
 10 33  1  0
 10 47  1  0
 10 48  1  0
 11 49  1  0
 11 50  1  0
 12 13  2  0
 12 18  1  0
 13 15  1  0
 13 51  1  0
 14 32  1  0
 14 34  2  0
 15 16  2  0
 15 52  1  0
 16 17  1  0
 16 53  1  0
 17 18  2  0
 17 21  1  0
 18 19  1  0
 19 29  2  0
 19 54  1  0
 20 21  2  0
 20 22  1  0
 20 29  1  0
 21 55  1  0
 22 23  1  0
 22 24  2  0
 23 30  2  0
 23 56  1  0
 24 31  1  0
 24 57  1  0
 25 31  1  0
 25 58  1  0
 25 59  1  0
 25 60  1  0
 26 32  1  0
 26 61  1  0
 26 62  1  0
 27 28  1  0
 30 31  1  0
M  END
$$$$
