382_ref
     RDKit          3D

 56 60  0  0  1  0  0  0  0  0999 V2000
   22.3230  -14.2910   25.6190 C   0  0  0  0  0  0  0  0  0  0  0  0
   22.0110  -14.9860   24.2840 C   0  0  0  0  0  0  0  0  0  0  0  0
   21.0480  -16.1020   24.5080 N   0  0  0  0  0  0  0  0  0  0  0  0
   19.7680  -15.6610   25.1350 C   0  0  2  0  0  0  0  0  0  0  0  0
   20.0600  -15.0240   26.4980 C   0  0  0  0  0  0  0  0  0  0  0  0
   21.0240  -13.8280   26.3050 C   0  0  0  0  0  0  0  0  0  0  0  0
   18.7190  -16.8040   25.1620 C   0  0  0  0  0  0  0  0  0  0  0  0
   19.2670  -18.0340   25.3410 F   0  0  0  0  0  0  0  0  0  0  0  0
   17.8050  -16.5990   26.1480 F   0  0  0  0  0  0  0  0  0  0  0  0
   18.0010  -16.8490   23.8070 C   0  0  0  0  0  0  0  0  0  0  0  0
   17.4150  -15.5460   23.4030 N   0  0  0  0  0  0  0  0  0  0  0  0
   17.8610  -14.8050   22.2800 C   0  0  0  0  0  0  0  0  0  0  0  0
   17.0050  -13.8380   21.6540 C   0  0  0  0  0  0  0  0  0  0  0  0
   17.4730  -13.1050   20.5270 C   0  0  0  0  0  0  0  0  0  0  0  0
   18.8440  -13.3810   20.0340 C   0  0  0  0  0  0  0  0  0  0  0  0
   19.7160  -14.3780   20.6870 C   0  0  0  0  0  0  0  0  0  0  0  0
   19.1710  -15.0470   21.8000 N   0  0  0  0  0  0  0  0  0  0  0  0
   15.7100  -13.3970   21.8900 N   0  0  0  0  0  0  0  0  0  0  0  0
   15.4580  -12.4320   20.9190 C   0  0  0  0  0  0  0  0  0  0  0  0
   16.5440  -12.2110   20.0760 O   0  0  0  0  0  0  0  0  0  0  0  0
   14.1350  -11.6760   20.7150 C   0  0  0  0  0  0  0  0  0  0  0  0
   13.0240  -11.7240   21.7700 C   0  0  0  0  0  0  0  0  0  0  0  0
   12.9160  -10.4860   22.5640 C   0  0  0  0  0  0  0  0  0  0  0  0
   11.8770  -10.3870   23.5960 C   0  0  0  0  0  0  0  0  0  0  0  0
   10.9660  -11.5370   23.7640 C   0  0  0  0  0  0  0  0  0  0  0  0
   11.0880  -12.7730   22.9610 C   0  0  0  0  0  0  0  0  0  0  0  0
   12.1470  -12.8950   21.9490 C   0  0  0  0  0  0  0  0  0  0  0  0
   12.3340  -14.1540   21.2840 N   0  0  0  0  0  0  0  0  0  0  0  0
   12.6160  -15.3380   21.9060 N   0  0  0  0  0  0  0  0  0  0  0  0
   12.6910  -16.3250   20.9570 C   0  0  0  0  0  0  0  0  0  0  0  0
   12.4480  -15.7450   19.7450 N   0  0  0  0  0  0  0  0  0  0  0  0
   12.2270  -14.4050   19.9490 C   0  0  0  0  0  0  0  0  0  0  0  0
   23.0634  -13.5018   25.5071 H   0  0  0  0  0  0  0  0  0  0  0  0
   22.7741  -15.0419   26.2596 H   0  0  0  0  0  0  0  0  0  0  0  0
   22.9004  -15.4421   23.8499 H   0  0  0  0  0  0  0  0  0  0  0  0
   21.5581  -14.3164   23.5499 H   0  0  0  0  0  0  0  0  0  0  0  0
   21.4714  -16.8215   25.0776 H   0  0  0  0  0  0  0  0  0  0  0  0
   20.8390  -16.5222   23.6124 H   0  0  0  0  0  0  0  0  0  0  0  0
   19.4493  -14.8370   24.5001 H   0  0  0  0  0  0  0  0  0  0  0  0
   20.5017  -15.7513   27.1818 H   0  0  0  0  0  0  0  0  0  0  0  0
   19.1430  -14.6703   26.9672 H   0  0  0  0  0  0  0  0  0  0  0  0
   20.5388  -13.0470   25.7168 H   0  0  0  0  0  0  0  0  0  0  0  0
   21.2272  -13.3752   27.2743 H   0  0  0  0  0  0  0  0  0  0  0  0
   17.1829  -17.5680   23.8643 H   0  0  0  0  0  0  0  0  0  0  0  0
   18.6703  -17.2249   23.0322 H   0  0  0  0  0  0  0  0  0  0  0  0
   16.5181  -15.3034   23.8032 H   0  0  0  0  0  0  0  0  0  0  0  0
   19.2234  -12.8430   19.1793 H   0  0  0  0  0  0  0  0  0  0  0  0
   20.7133  -14.6086   20.3549 H   0  0  0  0  0  0  0  0  0  0  0  0
   13.7140  -11.8593   19.7267 H   0  0  0  0  0  0  0  0  0  0  0  0
   14.4430  -10.6483   20.7255 H   0  0  0  0  0  0  0  0  0  0  0  0
   13.5964   -9.6600   22.4248 H   0  0  0  0  0  0  0  0  0  0  0  0
   11.7779   -9.5022   24.2075 H   0  0  0  0  0  0  0  0  0  0  0  0
   10.1842  -11.4796   24.5041 H   0  0  0  0  0  0  0  0  0  0  0  0
   10.3743  -13.5623   23.1042 H   0  0  0  0  0  0  0  0  0  0  0  0
   12.8961  -17.3701   21.1364 H   0  0  0  0  0  0  0  0  0  0  0  0
   12.0688  -13.6176   19.2382 H   0  0  0  0  0  0  0  0  0  0  0  0
  1  2  1  0
  1  6  1  0
  1 33  1  0
  1 34  1  0
  2  3  1  0
  2 35  1  0
  2 36  1  0
  3  4  1  0
  3 37  1  0
  3 38  1  0
  4  5  1  0
  4  7  1  0
  4 39  1  6
  5  6  1  0
  5 40  1  0
  5 41  1  0
  6 42  1  0
  6 43  1  0
  7  8  1  0
  7  9  1  0
  7 10  1  0
 10 11  1  0
 10 44  1  0
 10 45  1  0
 11 12  1  0
 11 46  1  0
 12 13  2  0
 12 17  1  0
 13 14  1  0
 13 18  1  0
 14 15  2  0
 14 20  1  0
 15 16  1  0
 15 47  1  0
 16 17  2  0
 16 48  1  0
 18 19  2  0
 19 20  1  0
 19 21  1  0
 21 22  1  0
 21 49  1  0
 21 50  1  0
 22 23  2  0
 22 27  1  0
 23 24  1  0
 23 51  1  0
 24 25  2  0
 24 52  1  0
 25 26  1  0
 25 53  1  0
 26 27  2  0
 26 54  1  0
 27 28  1  0
 28 29  1  0
 28 32  1  0
 29 30  2  0
 30 31  1  0
 30 55  1  0
 31 32  2  0
 32 56  1  0
M  CHG  1   3   1
M  END
$$$$
