0WH_ref
     RDKit          3D

 53 57  0  0  1  0  0  0  0  0999 V2000
  -47.7950   12.4100    9.3600 C   0  0  0  0  0  0  0  0  0  0  0  0
  -51.5090    9.3760   -2.5890 F   0  0  0  0  0  0  0  0  0  0  0  0
  -47.4850   11.7710   10.5920 N   0  0  0  0  0  0  0  0  0  0  0  0
  -45.9760   12.3650    0.7820 O   0  0  0  0  0  0  0  0  0  0  0  0
  -48.5860   14.6970   10.0840 C   0  0  0  0  0  0  0  0  0  0  0  0
  -51.0700   10.8910   -4.0580 F   0  0  0  0  0  0  0  0  0  0  0  0
  -48.2930   13.7290    9.1100 N   0  0  0  0  0  0  0  0  0  0  0  0
  -48.4190   13.8540    7.7540 C   0  0  0  0  0  0  0  0  0  0  0  0
  -50.6960    8.7590   -4.5210 F   0  0  0  0  0  0  0  0  0  0  0  0
  -48.1720   12.3320    1.4600 N   0  0  0  0  0  0  0  0  0  0  0  0
  -48.0490   12.6880    7.1650 C   0  0  0  0  0  0  0  0  0  0  0  0
  -46.9610    9.7170    7.0010 N   0  0  0  0  0  0  0  0  0  0  0  0
  -48.0380   12.5320    5.6890 C   0  0  0  0  0  0  0  0  0  0  0  0
  -46.8500    9.8630    9.4500 N   0  0  0  0  0  0  0  0  0  0  0  0
  -46.7340   12.2890    5.0010 C   0  0  0  0  0  0  0  0  0  0  0  0
  -46.6890   12.1840    3.6700 C   0  0  0  0  0  0  0  0  0  0  0  0
  -47.9180   12.3110    2.8980 C   0  0  0  0  0  0  0  0  0  0  0  0
  -49.5960   12.4130    1.2240 C   0  0  0  0  0  0  0  0  0  0  0  0
  -50.2280   12.7160    2.5170 C   0  0  0  0  0  0  0  0  0  0  0  0
  -49.1770   12.6030    3.5590 C   0  0  0  0  0  0  0  0  0  0  0  0
  -49.2340   12.7140    4.9080 C   0  0  0  0  0  0  0  0  0  0  0  0
  -47.0990   12.4010    0.4370 C   0  0  0  0  0  0  0  0  0  0  0  0
  -47.4390   12.5330   -0.9610 C   0  0  0  0  0  0  0  0  0  0  0  0
  -47.7300   11.2120   -1.6940 C   0  0  0  0  0  0  0  0  0  0  0  0
  -46.6920   10.1890   -1.8540 C   0  0  0  0  0  0  0  0  0  0  0  0
  -46.9920    9.0340   -2.5220 C   0  0  0  0  0  0  0  0  0  0  0  0
  -48.3160    8.8470   -3.0900 C   0  0  0  0  0  0  0  0  0  0  0  0
  -49.2910    9.8340   -2.9350 C   0  0  0  0  0  0  0  0  0  0  0  0
  -48.9790   11.0440   -2.2250 C   0  0  0  0  0  0  0  0  0  0  0  0
  -50.6940    9.6840   -3.5230 C   0  0  0  0  0  0  0  0  0  0  0  0
  -47.6310   11.7780    8.2100 C   0  0  0  0  0  0  0  0  0  0  0  0
  -47.1590   10.4890    8.2180 C   0  0  0  0  0  0  0  0  0  0  0  0
  -47.0110   10.4900   10.5800 C   0  0  0  0  0  0  0  0  0  0  0  0
  -48.8117   15.6555    9.6141 H   0  0  0  0  0  0  0  0  0  0  0  0
  -49.4490   14.3716   10.6629 H   0  0  0  0  0  0  0  0  0  0  0  0
  -47.7290   14.8179   10.7475 H   0  0  0  0  0  0  0  0  0  0  0  0
  -48.7686   14.7802    7.3231 H   0  0  0  0  0  0  0  0  0  0  0  0
  -47.1986   10.1339    6.1124 H   0  0  0  0  0  0  0  0  0  0  0  0
  -46.6760    8.7471    7.0685 H   0  0  0  0  0  0  0  0  0  0  0  0
  -45.8265   12.2035    5.5802 H   0  0  0  0  0  0  0  0  0  0  0  0
  -45.7336   12.0135    3.1991 H   0  0  0  0  0  0  0  0  0  0  0  0
  -49.9000   11.4217    0.8856 H   0  0  0  0  0  0  0  0  0  0  0  0
  -49.8523   13.1706    0.4836 H   0  0  0  0  0  0  0  0  0  0  0  0
  -51.0298   11.9956    2.6852 H   0  0  0  0  0  0  0  0  0  0  0  0
  -50.7050   13.6888    2.5041 H   0  0  0  0  0  0  0  0  0  0  0  0
  -50.1693   12.9305    5.4037 H   0  0  0  0  0  0  0  0  0  0  0  0
  -46.6324   13.0416   -1.4896 H   0  0  0  0  0  0  0  0  0  0  0  0
  -48.2798   13.2209   -1.0544 H   0  0  0  0  0  0  0  0  0  0  0  0
  -45.7054   10.3367   -1.4390 H   0  0  0  0  0  0  0  0  0  0  0  0
  -46.2421    8.2653   -2.6379 H   0  0  0  0  0  0  0  0  0  0  0  0
  -48.5404    7.9282   -3.6058 H   0  0  0  0  0  0  0  0  0  0  0  0
  -49.7336   11.8087   -2.1048 H   0  0  0  0  0  0  0  0  0  0  0  0
  -46.7561   10.0069   11.5088 H   0  0  0  0  0  0  0  0  0  0  0  0
  1  3  2  0
  1  7  1  0
  1 31  1  0
  2 30  1  0
  3 33  1  0
  4 22  2  0
  5  7  1  0
  5 34  1  0
  5 35  1  0
  5 36  1  0
  6 30  1  0
  7  8  1  0
  8 11  2  0
  8 37  1  0
  9 30  1  0
 10 17  1  0
 10 18  1  0
 10 22  1  0
 11 13  1  0
 11 31  1  0
 12 32  1  0
 12 38  1  0
 12 39  1  0
 13 15  2  0
 13 21  1  0
 14 32  1  0
 14 33  2  0
 15 16  1  0
 15 40  1  0
 16 17  2  0
 16 41  1  0
 17 20  1  0
 18 19  1  0
 18 42  1  0
 18 43  1  0
 19 20  1  0
 19 44  1  0
 19 45  1  0
 20 21  2  0
 21 46  1  0
 22 23  1  0
 23 24  1  0
 23 47  1  0
 23 48  1  0
 24 25  2  0
 24 29  1  0
 25 26  1  0
 25 49  1  0
 26 27  2  0
 26 50  1  0
 27 28  1  0
 27 51  1  0
 28 29  2  0
 28 30  1  0
 29 52  1  0
 31 32  2  0
 33 53  1  0
M  END
$$$$
