L47_ref
     RDKit          3D

 37 39  0  0  1  0  0  0  0  0999 V2000
   37.9680   17.1950   54.0850 C   0  0  0  0  0  0  0  0  0  0  0  0
   38.9890   16.9640   53.0990 C   0  0  0  0  0  0  0  0  0  0  0  0
   38.7810   15.8830   52.1520 C   0  0  0  0  0  0  0  0  0  0  0  0
   37.5560   15.0730   52.2310 C   0  0  0  0  0  0  0  0  0  0  0  0
   36.5180   15.3090   53.1990 C   0  0  0  0  0  0  0  0  0  0  0  0
   36.7520   16.3870   54.1200 C   0  0  0  0  0  0  0  0  0  0  0  0
   39.8270   15.6420   51.1510 C   0  0  0  0  0  0  0  0  0  0  0  0
   40.9290   16.4060   50.8200 N   0  0  0  0  0  0  0  0  0  0  0  0
   41.7000   15.9220   49.8990 N   0  0  0  0  0  0  0  0  0  0  0  0
   41.1010   14.6810   49.2970 C   0  0  1  0  0  0  0  0  0  0  0  0
   40.1280   14.4070   50.3590 C   0  0  0  0  0  0  0  0  0  0  0  0
   41.0760   14.1320   47.9180 C   0  0  0  0  0  0  0  0  0  0  0  0
   42.9400   16.4590   49.5630 C   0  0  0  0  0  0  0  0  0  0  0  0
   44.0660   15.4240   49.4330 C   0  0  0  0  0  0  0  0  0  0  0  0
   43.2100   17.6600   49.4340 O   0  0  0  0  0  0  0  0  0  0  0  0
   40.0400   14.6090   47.0200 C   0  0  0  0  0  0  0  0  0  0  0  0
   40.0200   14.2530   45.6170 C   0  0  0  0  0  0  0  0  0  0  0  0
   41.0700   13.3650   45.1610 C   0  0  0  0  0  0  0  0  0  0  0  0
   42.0900   12.8540   46.0760 C   0  0  0  0  0  0  0  0  0  0  0  0
   42.1010   13.2220   47.4730 C   0  0  0  0  0  0  0  0  0  0  0  0
   37.3410   13.7650   51.1510 Cl  0  0  0  0  0  0  0  0  0  0  0  0
   43.0930   12.0190   45.6010 O   0  0  0  0  0  0  0  0  0  0  0  0
   38.1030   17.9818   54.8128 H   0  0  0  0  0  0  0  0  0  0  0  0
   39.8831   17.5630   53.0930 H   0  0  0  0  0  0  0  0  0  0  0  0
   35.6291   14.6976   53.2478 H   0  0  0  0  0  0  0  0  0  0  0  0
   36.0279   16.5679   54.8880 H   0  0  0  0  0  0  0  0  0  0  0  0
   41.8759   14.0075   49.6674 H   0  0  0  0  0  0  0  0  0  0  0  0
   39.2717   14.1098   49.7674 H   0  0  0  0  0  0  0  0  0  0  0  0
   40.4148   13.5790   50.9923 H   0  0  0  0  0  0  0  0  0  0  0  0
   45.0310   15.8936   49.6123 H   0  0  0  0  0  0  0  0  0  0  0  0
   43.9591   14.6773   50.2193 H   0  0  0  0  0  0  0  0  0  0  0  0
   44.0228   14.9012   48.4848 H   0  0  0  0  0  0  0  0  0  0  0  0
   39.2992   15.2986   47.3920 H   0  0  0  0  0  0  0  0  0  0  0  0
   39.2637   14.6521   44.9654 H   0  0  0  0  0  0  0  0  0  0  0  0
   41.1052   13.0712   44.1258 H   0  0  0  0  0  0  0  0  0  0  0  0
   42.8701   12.8514   48.1334 H   0  0  0  0  0  0  0  0  0  0  0  0
   43.7590   11.7879   46.2609 H   0  0  0  0  0  0  0  0  0  0  0  0
  1  2  2  0
  1  6  1  0
  1 23  1  0
  2  3  1  0
  2 24  1  0
  3  4  2  0
  3  7  1  0
  4  5  1  0
  4 21  1  0
  5  6  2  0
  5 25  1  0
  6 26  1  0
  7  8  2  0
  7 11  1  0
  8  9  1  0
  9 10  1  0
  9 13  1  0
 10 11  1  0
 10 12  1  0
 10 27  1  1
 11 28  1  0
 11 29  1  0
 12 16  2  0
 12 20  1  0
 13 14  1  0
 13 15  2  0
 14 30  1  0
 14 31  1  0
 14 32  1  0
 16 17  1  0
 16 33  1  0
 17 18  2  0
 17 34  1  0
 18 19  1  0
 18 35  1  0
 19 20  2  0
 19 22  1  0
 20 36  1  0
 22 37  1  0
M  END
$$$$
