Hermite
 OpenBabel07022503323D

 46 49  0  0  0  0  0  0  0  0999 V2000
  -22.1376    9.8953   19.7110 N   0  0  0  0  0  0  0  0  0  0  0  0
  -23.1489   15.3009   20.4436 C   0  0  0  0  0  0  0  0  0  0  0  0
  -22.7647   14.1583   21.3586 C   0  0  0  0  0  0  0  0  0  0  0  0
  -23.1688   12.4125   19.0718 C   0  0  0  0  0  0  0  0  0  0  0  0
  -23.1879    9.9807   18.7863 C   0  0  0  0  0  0  0  0  0  0  0  0
  -23.6921    8.8301   18.1917 C   0  0  0  0  0  0  0  0  0  0  0  0
  -25.8851    9.9042   14.5265 C   0  0  0  0  0  0  0  0  0  0  0  0
  -26.8722   10.1414   13.5461 C   0  0  0  0  0  0  0  0  0  0  0  0
  -20.6548   10.8616   21.1077 O   0  0  0  0  0  0  0  0  0  0  0  0
  -21.6046   10.9972   20.3550 C   0  0  0  0  0  0  0  0  0  0  0  0
  -22.1976   12.2632   20.0176 C   0  0  0  0  0  0  0  0  0  0  0  0
  -21.7439   13.3048   20.7878 O   0  0  0  0  0  0  0  0  0  0  0  0
  -23.7197   13.6234   18.7059 N   0  0  0  0  0  0  0  0  0  0  0  0
  -23.0365   14.8871   18.9803 C   0  0  1  0  0  0  0  0  0  0  0  0
  -23.5868   15.9495   18.0473 C   0  0  0  0  0  0  0  0  0  0  0  0
  -21.5635    8.5921   20.0256 C   0  0  0  0  0  0  0  0  0  0  0  0
  -24.6822    8.9184   17.2321 C   0  0  0  0  0  0  0  0  0  0  0  0
  -25.1831   10.1532   16.8552 C   0  0  0  0  0  0  0  0  0  0  0  0
  -24.7009   11.3068   17.4538 C   0  0  0  0  0  0  0  0  0  0  0  0
  -23.7028   11.2346   18.4192 C   0  0  0  0  0  0  0  0  0  0  0  0
  -26.1270   10.2431   15.8328 N   0  0  0  0  0  0  0  0  0  0  0  0
  -28.0912   10.8134   13.8844 C   0  0  0  0  0  0  0  0  0  0  0  0
  -29.0709   11.3488   14.1072 N   0  0  0  0  0  0  0  0  0  0  0  0
  -26.5813    9.7326   12.2513 C   0  0  0  0  0  0  0  0  0  0  0  0
  -27.7766    9.9373   11.0255 Cl  0  0  0  0  0  0  0  0  0  0  0  0
  -25.4501    9.1703   11.8721 N   0  0  0  0  0  0  0  0  0  0  0  0
  -24.5230    8.9779   12.8171 C   0  0  0  0  0  0  0  0  0  0  0  0
  -24.6879    9.3139   14.1436 C   0  0  0  0  0  0  0  0  0  0  0  0
  -22.4945   16.1521   20.6313 H   0  0  0  0  0  0  0  0  0  0  0  0
  -24.1730   15.6076   20.6564 H   0  0  0  0  0  0  0  0  0  0  0  0
  -23.6490   13.5631   21.5859 H   0  0  0  0  0  0  0  0  0  0  0  0
  -22.4122   14.5584   22.3093 H   0  0  0  0  0  0  0  0  0  0  0  0
  -23.3099    7.8618   18.4792 H   0  0  0  0  0  0  0  0  0  0  0  0
  -24.6141   13.6503   18.2375 H   0  0  0  0  0  0  0  0  0  0  0  0
  -21.9795   14.7536   18.7500 H   0  0  0  0  0  0  0  0  0  0  0  0
  -23.4871   15.6141   17.0150 H   0  0  0  0  0  0  0  0  0  0  0  0
  -24.6391   16.1221   18.2727 H   0  0  0  0  0  0  0  0  0  0  0  0
  -23.0299   16.8767   18.1829 H   0  0  0  0  0  0  0  0  0  0  0  0
  -20.7647    8.7134   20.7572 H   0  0  0  0  0  0  0  0  0  0  0  0
  -22.3370    7.9435   20.4370 H   0  0  0  0  0  0  0  0  0  0  0  0
  -21.1592    8.1439   19.1179 H   0  0  0  0  0  0  0  0  0  0  0  0
  -25.0696    8.0215   16.7718 H   0  0  0  0  0  0  0  0  0  0  0  0
  -25.1006   12.2695   17.1710 H   0  0  0  0  0  0  0  0  0  0  0  0
  -27.0379   10.5835   16.1058 H   0  0  0  0  0  0  0  0  0  0  0  0
  -23.5731    8.5333   12.5591 H   0  0  0  0  0  0  0  0  0  0  0  0
  -23.9175    9.1300   14.8777 H   0  0  0  0  0  0  0  0  0  0  0  0
  1  5  1  0  0  0  0
  1 10  1  0  0  0  0
  1 16  1  0  0  0  0
  2  3  1  0  0  0  0
  2 14  1  0  0  0  0
  2 29  1  0  0  0  0
  2 30  1  0  0  0  0
  3 12  1  0  0  0  0
  3 31  1  0  0  0  0
  3 32  1  0  0  0  0
  4 11  2  0  0  0  0
  4 13  1  0  0  0  0
  4 20  1  0  0  0  0
  5  6  2  0  0  0  0
  5 20  1  0  0  0  0
  6 17  1  0  0  0  0
  6 33  1  0  0  0  0
  7  8  2  0  0  0  0
  7 21  1  0  0  0  0
  7 28  1  0  0  0  0
  8 22  1  0  0  0  0
  8 24  1  0  0  0  0
  9 10  2  0  0  0  0
 10 11  1  0  0  0  0
 11 12  1  0  0  0  0
 13 14  1  0  0  0  0
 13 34  1  0  0  0  0
 14 15  1  0  0  0  0
 14 35  1  6  0  0  0
 15 36  1  0  0  0  0
 15 37  1  0  0  0  0
 15 38  1  0  0  0  0
 16 39  1  0  0  0  0
 16 40  1  0  0  0  0
 16 41  1  0  0  0  0
 17 18  2  0  0  0  0
 17 42  1  0  0  0  0
 18 19  1  0  0  0  0
 18 21  1  0  0  0  0
 19 20  2  0  0  0  0
 19 43  1  0  0  0  0
 21 44  1  0  0  0  0
 22 23  3  0  0  0  0
 24 25  1  0  0  0  0
 24 26  2  0  0  0  0
 26 27  1  0  0  0  0
 27 28  2  0  0  0  0
 27 45  1  0  0  0  0
 28 46  1  0  0  0  0
M  END
$$$$
