72X_ref
     RDKit          3D

 82 84  0  0  1  0  0  0  0  0999 V2000
   37.4590  -23.1140  -24.0050 C   0  0  1  0  0  0  0  0  0  0  0  0
   37.3040  -23.7750  -22.7260 O   0  0  0  0  0  0  0  0  0  0  0  0
   37.8290  -21.6010  -23.7640 C   0  0  0  0  0  0  0  0  0  0  0  0
   38.0150  -20.9110  -22.4900 C   0  0  0  0  0  0  0  0  0  0  0  0
   37.9950  -20.8220  -25.1010 C   0  0  0  0  0  0  0  0  0  0  0  0
   38.3630  -19.4890  -22.4940 C   0  0  0  0  0  0  0  0  0  0  0  0
   38.3350  -19.4210  -25.0550 C   0  0  0  0  0  0  0  0  0  0  0  0
   38.5200  -18.7530  -23.7580 C   0  0  0  0  0  0  0  0  0  0  0  0
   38.6370  -23.8510  -24.7740 C   0  0  0  0  0  0  0  0  0  0  0  0
   40.0740  -23.8730  -24.1620 C   0  0  0  0  0  0  0  0  0  0  0  0
   41.1760  -24.5880  -24.9770 C   0  0  0  0  0  0  0  0  0  0  0  0
   40.8690  -26.0470  -25.3550 C   0  0  0  0  0  0  0  0  0  0  0  0
   40.9460  -26.8590  -24.2180 O   0  0  0  0  0  0  0  0  0  0  0  0
   40.6790  -28.2100  -24.4990 C   0  0  0  0  0  0  0  0  0  0  0  0
   35.5680  -25.2510  -29.4260 C   0  0  2  0  0  0  0  0  0  0  0  0
   35.2530  -26.7290  -29.8210 C   0  0  0  0  0  0  0  0  0  0  0  0
   37.0260  -24.8020  -29.7330 C   0  0  0  0  0  0  0  0  0  0  0  0
   35.4770  -27.0080  -31.2560 N   0  0  0  0  0  0  0  0  0  0  0  0
   37.4220  -23.3460  -29.3540 C   0  0  0  0  0  0  0  0  0  0  0  0
   38.9040  -23.0500  -29.7220 C   0  0  0  0  0  0  0  0  0  0  0  0
   39.3610  -21.5970  -29.3520 C   0  0  0  0  0  0  0  0  0  0  0  0
   38.4190  -20.4700  -29.8830 C   0  0  0  0  0  0  0  0  0  0  0  0
   36.4900  -22.2630  -30.0900 C   0  0  0  0  0  0  0  0  0  0  0  0
   36.8550  -20.7640  -29.7280 C   0  0  0  0  0  0  0  0  0  0  0  0
   35.3320  -25.0300  -28.0000 N   0  0  0  0  0  0  0  0  0  0  0  0
   34.1540  -24.6620  -27.3640 C   0  0  0  0  0  0  0  0  0  0  0  0
   33.1040  -24.4770  -27.9950 O   0  0  0  0  0  0  0  0  0  0  0  0
   34.2760  -24.5200  -25.9670 N   0  0  0  0  0  0  0  0  0  0  0  0
   33.4450  -22.6020  -24.8480 C   0  0  0  0  0  0  0  0  0  0  0  0
   34.8150  -22.5050  -24.1010 C   0  0  0  0  0  0  0  0  0  0  0  0
   36.0760  -23.2310  -24.8450 C   0  0  2  0  0  0  0  0  0  0  0  0
   35.5570  -24.7380  -25.1590 C   0  0  0  0  0  0  0  0  0  0  0  0
   33.1510  -24.1320  -25.1300 C   0  0  0  0  0  0  0  0  0  0  0  0
   34.4840  -26.4040  -32.1600 C   0  0  0  0  0  0  0  0  0  0  0  0
   38.5160  -18.5490  -26.5110 Cl  0  0  0  0  0  0  0  0  0  0  0  0
   37.4576  -24.7232  -22.8363 H   0  0  0  0  0  0  0  0  0  0  0  0
   37.9068  -21.4407  -21.5552 H   0  0  0  0  0  0  0  0  0  0  0  0
   37.8690  -21.3042  -26.0588 H   0  0  0  0  0  0  0  0  0  0  0  0
   38.5158  -18.9796  -21.5547 H   0  0  0  0  0  0  0  0  0  0  0  0
   38.7983  -17.7131  -23.7339 H   0  0  0  0  0  0  0  0  0  0  0  0
   38.7087  -23.4499  -25.7854 H   0  0  0  0  0  0  0  0  0  0  0  0
   38.3278  -24.8855  -24.9141 H   0  0  0  0  0  0  0  0  0  0  0  0
   39.9983  -24.3748  -23.1994 H   0  0  0  0  0  0  0  0  0  0  0  0
   40.3894  -22.8561  -23.9383 H   0  0  0  0  0  0  0  0  0  0  0  0
   42.1364  -24.5245  -24.4650 H   0  0  0  0  0  0  0  0  0  0  0  0
   41.2953  -24.0190  -25.8927 H   0  0  0  0  0  0  0  0  0  0  0  0
   41.6137  -26.3806  -26.0802 H   0  0  0  0  0  0  0  0  0  0  0  0
   39.9075  -26.1159  -25.8432 H   0  0  0  0  0  0  0  0  0  0  0  0
   40.6328  -28.7791  -23.5733 H   0  0  0  0  0  0  0  0  0  0  0  0
   39.7140  -28.3381  -24.9922 H   0  0  0  0  0  0  0  0  0  0  0  0
   41.4529  -28.6477  -25.1308 H   0  0  0  0  0  0  0  0  0  0  0  0
   34.8923  -24.6022  -29.9835 H   0  0  0  0  0  0  0  0  0  0  0  0
   34.2294  -27.0279  -29.5907 H   0  0  0  0  0  0  0  0  0  0  0  0
   35.9364  -27.4220  -29.3391 H   0  0  0  0  0  0  0  0  0  0  0  0
   37.1738  -24.8734  -30.8016 H   0  0  0  0  0  0  0  0  0  0  0  0
   37.7308  -25.4950  -29.2745 H   0  0  0  0  0  0  0  0  0  0  0  0
   35.4282  -28.0170  -31.3611 H   0  0  0  0  0  0  0  0  0  0  0  0
   36.4165  -26.7401  -31.5309 H   0  0  0  0  0  0  0  0  0  0  0  0
   37.3183  -23.2007  -28.2774 H   0  0  0  0  0  0  0  0  0  0  0  0
   39.0508  -23.2121  -30.7914 H   0  0  0  0  0  0  0  0  0  0  0  0
   39.5560  -23.7790  -29.2426 H   0  0  0  0  0  0  0  0  0  0  0  0
   40.3911  -21.4138  -29.6462 H   0  0  0  0  0  0  0  0  0  0  0  0
   39.3599  -21.5381  -28.2645 H   0  0  0  0  0  0  0  0  0  0  0  0
   38.6276  -20.3238  -30.9433 H   0  0  0  0  0  0  0  0  0  0  0  0
   38.6616  -19.5265  -29.3985 H   0  0  0  0  0  0  0  0  0  0  0  0
   35.4397  -22.4424  -29.8630 H   0  0  0  0  0  0  0  0  0  0  0  0
   36.5736  -22.4082  -31.1667 H   0  0  0  0  0  0  0  0  0  0  0  0
   36.2735  -20.0652  -30.3281 H   0  0  0  0  0  0  0  0  0  0  0  0
   36.5687  -20.5809  -28.6913 H   0  0  0  0  0  0  0  0  0  0  0  0
   36.1502  -25.1382  -27.4181 H   0  0  0  0  0  0  0  0  0  0  0  0
   33.5119  -22.0983  -25.7993 H   0  0  0  0  0  0  0  0  0  0  0  0
   32.6438  -22.1439  -24.2677 H   0  0  0  0  0  0  0  0  0  0  0  0
   34.6967  -22.9397  -23.1086 H   0  0  0  0  0  0  0  0  0  0  0  0
   35.0542  -21.4582  -23.9124 H   0  0  0  0  0  0  0  0  0  0  0  0
   36.2078  -22.7508  -25.8150 H   0  0  0  0  0  0  0  0  0  0  0  0
   36.2681  -25.3781  -25.6759 H   0  0  0  0  0  0  0  0  0  0  0  0
   35.3479  -25.2807  -24.2411 H   0  0  0  0  0  0  0  0  0  0  0  0
   33.1405  -24.7190  -24.2153 H   0  0  0  0  0  0  0  0  0  0  0  0
   32.1914  -24.3436  -25.6027 H   0  0  0  0  0  0  0  0  0  0  0  0
   34.7296  -26.7481  -33.1591 H   0  0  0  0  0  0  0  0  0  0  0  0
   33.4920  -26.7395  -31.8554 H   0  0  0  0  0  0  0  0  0  0  0  0
   34.6008  -25.3232  -32.0983 H   0  0  0  0  0  0  0  0  0  0  0  0
  1  2  1  1
  1  3  1  0
  1  9  1  0
  1 31  1  0
  2 36  1  0
  3  4  2  0
  3  5  1  0
  4  6  1  0
  4 37  1  0
  5  7  2  0
  5 38  1  0
  6  8  2  0
  6 39  1  0
  7  8  1  0
  7 35  1  0
  8 40  1  0
  9 10  1  0
  9 41  1  0
  9 42  1  0
 10 11  1  0
 10 43  1  0
 10 44  1  0
 11 12  1  0
 11 45  1  0
 11 46  1  0
 12 13  1  0
 12 47  1  0
 12 48  1  0
 13 14  1  0
 14 49  1  0
 14 50  1  0
 14 51  1  0
 15 16  1  0
 15 17  1  0
 15 25  1  0
 15 52  1  6
 16 18  1  0
 16 53  1  0
 16 54  1  0
 17 19  1  0
 17 55  1  0
 17 56  1  0
 18 34  1  0
 18 57  1  0
 18 58  1  0
 19 20  1  0
 19 23  1  0
 19 59  1  0
 20 21  1  0
 20 60  1  0
 20 61  1  0
 21 22  1  0
 21 62  1  0
 21 63  1  0
 22 24  1  0
 22 64  1  0
 22 65  1  0
 23 24  1  0
 23 66  1  0
 23 67  1  0
 24 68  1  0
 24 69  1  0
 25 26  1  0
 25 70  1  0
 26 27  2  0
 26 28  1  0
 28 32  1  0
 28 33  1  0
 29 30  1  0
 29 33  1  0
 29 71  1  0
 29 72  1  0
 30 31  1  0
 30 73  1  0
 30 74  1  0
 31 32  1  0
 31 75  1  6
 32 76  1  0
 32 77  1  0
 33 78  1  0
 33 79  1  0
 34 80  1  0
 34 81  1  0
 34 82  1  0
M  CHG  1  18   1
M  END
$$$$
