IXF_ref
     RDKit          3D

 44 46  0  0  1  0  0  0  0  0999 V2000
    1.0710  -11.9040  -26.0830 C   0  0  0  0  0  0  0  0  0  0  0  0
    0.4280  -11.6860  -27.4610 C   0  0  0  0  0  0  0  0  0  0  0  0
    0.1510  -10.2390  -27.7370 C   0  0  0  0  0  0  0  0  0  0  0  0
   -0.8340  -12.5480  -27.6900 C   0  0  0  0  0  0  0  0  0  0  0  0
   -2.0650  -12.1460  -28.3040 C   0  0  0  0  0  0  0  0  0  0  0  0
   -3.1040  -13.1540  -28.5150 C   0  0  0  0  0  0  0  0  0  0  0  0
   -0.7290  -13.8870  -27.3450 C   0  0  0  0  0  0  0  0  0  0  0  0
   -1.7400  -14.8210  -27.5440 C   0  0  0  0  0  0  0  0  0  0  0  0
   -2.9650  -14.5410  -28.0940 C   0  0  0  0  0  0  0  0  0  0  0  0
   -3.7910  -15.7190  -28.0440 N   0  0  0  0  0  0  0  0  0  0  0  0
   -4.5990  -16.3810  -29.0860 C   0  0  0  0  0  0  0  0  0  0  0  0
   -3.6880  -16.3800  -26.7520 C   0  0  0  0  0  0  0  0  0  0  0  0
   -3.2780  -17.7480  -26.5570 C   0  0  0  0  0  0  0  0  0  0  0  0
   -3.1570  -18.1800  -25.1930 C   0  0  0  0  0  0  0  0  0  0  0  0
   -2.7590  -19.4780  -24.8990 C   0  0  0  0  0  0  0  0  0  0  0  0
   -2.4510  -20.3010  -25.8610 N   0  0  0  0  0  0  0  0  0  0  0  0
   -2.7100  -19.9000  -23.6200 N   0  0  0  0  0  0  0  0  0  0  0  0
   -2.9820  -19.0890  -22.6320 C   0  0  0  0  0  0  0  0  0  0  0  0
   -2.9900  -19.4890  -21.3740 N   0  0  0  0  0  0  0  0  0  0  0  0
   -3.3970  -17.7830  -22.8040 N   0  0  0  0  0  0  0  0  0  0  0  0
   -3.5110  -17.3460  -24.1190 C   0  0  0  0  0  0  0  0  0  0  0  0
   -3.9100  -16.0600  -24.3390 N   0  0  0  0  0  0  0  0  0  0  0  0
   -3.9870  -15.6030  -25.6010 C   0  0  0  0  0  0  0  0  0  0  0  0
    1.1502  -12.9392  -25.7792 H   0  0  0  0  0  0  0  0  0  0  0  0
    2.0469  -11.4238  -26.0400 H   0  0  0  0  0  0  0  0  0  0  0  0
    0.4636  -11.4352  -25.3074 H   0  0  0  0  0  0  0  0  0  0  0  0
    1.1376  -12.0356  -28.2131 H   0  0  0  0  0  0  0  0  0  0  0  0
   -0.5061  -10.0411  -28.5696 H   0  0  0  0  0  0  0  0  0  0  0  0
    0.2413   -9.6642  -26.8140 H   0  0  0  0  0  0  0  0  0  0  0  0
    1.0727   -9.8824  -28.1827 H   0  0  0  0  0  0  0  0  0  0  0  0
   -2.2604  -11.1374  -28.6257 H   0  0  0  0  0  0  0  0  0  0  0  0
   -4.0347  -12.8480  -28.9700 H   0  0  0  0  0  0  0  0  0  0  0  0
    0.1930  -14.2876  -26.9622 H   0  0  0  0  0  0  0  0  0  0  0  0
   -1.4350  -15.8220  -27.2708 H   0  0  0  0  0  0  0  0  0  0  0  0
   -5.5090  -16.8156  -28.6704 H   0  0  0  0  0  0  0  0  0  0  0  0
   -4.8775  -15.6639  -29.8581 H   0  0  0  0  0  0  0  0  0  0  0  0
   -4.0232  -17.1739  -29.5639 H   0  0  0  0  0  0  0  0  0  0  0  0
   -3.0377  -18.3763  -27.4026 H   0  0  0  0  0  0  0  0  0  0  0  0
   -2.1930  -21.2499  -25.6215 H   0  0  0  0  0  0  0  0  0  0  0  0
   -2.5140  -20.0087  -26.8256 H   0  0  0  0  0  0  0  0  0  0  0  0
   -3.2363  -18.8407  -20.6292 H   0  0  0  0  0  0  0  0  0  0  0  0
   -2.7494  -20.4428  -21.1458 H   0  0  0  0  0  0  0  0  0  0  0  0
   -3.6479  -17.2067  -22.0053 H   0  0  0  0  0  0  0  0  0  0  0  0
   -4.3221  -14.5844  -25.7041 H   0  0  0  0  0  0  0  0  0  0  0  0
  1  2  1  0
  1 24  1  0
  1 25  1  0
  1 26  1  0
  2  3  1  0
  2  4  1  0
  2 27  1  0
  3 28  1  0
  3 29  1  0
  3 30  1  0
  4  5  2  0
  4  7  1  0
  5  6  1  0
  5 31  1  0
  6  9  2  0
  6 32  1  0
  7  8  2  0
  7 33  1  0
  8  9  1  0
  8 34  1  0
  9 10  1  0
 10 11  1  0
 10 12  1  0
 11 35  1  0
 11 36  1  0
 11 37  1  0
 12 13  2  0
 12 23  1  0
 13 14  1  0
 13 38  1  0
 14 15  2  0
 14 21  1  0
 15 16  1  0
 15 17  1  0
 16 39  1  0
 16 40  1  0
 17 18  2  0
 18 19  1  0
 18 20  1  0
 19 41  1  0
 19 42  1  0
 20 21  2  0
 20 43  1  0
 21 22  1  0
 22 23  2  0
 23 44  1  0
M  CHG  1  20   1
M  END
$$$$
