K4F_ref
     RDKit          3D

 56 60  0  0  1  0  0  0  0  0999 V2000
   30.6830   46.6160    0.0320 C   0  0  0  0  0  0  0  0  0  0  0  0
   30.8480   47.1740   -1.2600 C   0  0  0  0  0  0  0  0  0  0  0  0
   29.8320   46.9950   -2.2280 C   0  0  0  0  0  0  0  0  0  0  0  0
   28.6590   46.2700   -1.9400 C   0  0  0  0  0  0  0  0  0  0  0  0
   28.4900   45.7050   -0.6280 C   0  0  0  0  0  0  0  0  0  0  0  0
   29.5360   45.9000    0.3750 C   0  0  0  0  0  0  0  0  0  0  0  0
   29.2180   45.4070    1.6020 C   0  0  1  0  0  0  0  0  0  0  0  0
   28.3520   46.1930    2.6270 C   0  0  0  0  0  0  0  0  0  0  0  0
   27.9670   47.6250    2.1330 C   0  0  0  0  0  0  0  0  0  0  0  0
   28.7560   46.1770    4.0640 C   0  0  0  0  0  0  0  0  0  0  0  0
   27.1230   45.3070    2.4310 O   0  0  0  0  0  0  0  0  0  0  0  0
   27.4240   44.0310    2.0940 C   0  0  0  0  0  0  0  0  0  0  0  0
   26.5790   43.1600    2.0800 O   0  0  0  0  0  0  0  0  0  0  0  0
   28.7830   43.9750    1.7980 N   0  0  0  0  0  0  0  0  0  0  0  0
   29.5370   42.8580    1.5600 C   0  0  0  0  0  0  0  0  0  0  0  0
   30.8380   42.9330    0.9650 C   0  0  0  0  0  0  0  0  0  0  0  0
   31.6340   41.7770    0.7880 C   0  0  0  0  0  0  0  0  0  0  0  0
   29.0650   41.5880    1.9540 C   0  0  0  0  0  0  0  0  0  0  0  0
   29.8560   40.4270    1.7810 C   0  0  0  0  0  0  0  0  0  0  0  0
   31.1430   40.5180    1.2050 C   0  0  0  0  0  0  0  0  0  0  0  0
   31.9230   39.2280    1.1100 C   0  0  0  0  0  0  0  0  0  0  0  0
   31.5400   38.1790    1.6660 O   0  0  0  0  0  0  0  0  0  0  0  0
   33.0770   39.2920    0.3740 N   0  0  0  0  0  0  0  0  0  0  0  0
   33.9990   38.3080    0.0280 C   0  0  0  0  0  0  0  0  0  0  0  0
   33.8720   36.9450    0.4160 C   0  0  0  0  0  0  0  0  0  0  0  0
   34.8810   35.9950    0.1040 C   0  0  0  0  0  0  0  0  0  0  0  0
   36.0370   36.4050   -0.6060 C   0  0  0  0  0  0  0  0  0  0  0  0
   35.1490   38.6950   -0.6870 C   0  0  0  0  0  0  0  0  0  0  0  0
   36.1990   37.7230   -1.0060 C   0  0  0  0  0  0  0  0  0  0  0  0
   37.3250   38.1310   -1.6950 C   0  0  0  0  0  0  0  0  0  0  0  0
   37.4500   39.4860   -2.0910 C   0  0  0  0  0  0  0  0  0  0  0  0
   36.4080   40.4210   -1.7720 C   0  0  0  0  0  0  0  0  0  0  0  0
   35.3050   39.9970   -1.0900 N   0  0  0  0  0  0  0  0  0  0  0  0
   31.4605   46.7684    0.7670 H   0  0  0  0  0  0  0  0  0  0  0  0
   31.7621   47.6832   -1.5225 H   0  0  0  0  0  0  0  0  0  0  0  0
   30.1320   47.2788   -3.2107 H   0  0  0  0  0  0  0  0  0  0  0  0
   27.9043   46.1141   -2.6961 H   0  0  0  0  0  0  0  0  0  0  0  0
   27.5800   45.1645   -0.4129 H   0  0  0  0  0  0  0  0  0  0  0  0
   30.2007   45.4052    2.0776 H   0  0  0  0  0  0  0  0  0  0  0  0
   27.7260   48.2451    2.9915 H   0  0  0  0  0  0  0  0  0  0  0  0
   28.8048   48.1288    1.6511 H   0  0  0  0  0  0  0  0  0  0  0  0
   27.1322   47.6225    1.4311 H   0  0  0  0  0  0  0  0  0  0  0  0
   27.9116   46.2519    4.7366 H   0  0  0  0  0  0  0  0  0  0  0  0
   29.3725   45.3130    4.3029 H   0  0  0  0  0  0  0  0  0  0  0  0
   29.3819   47.0366    4.2935 H   0  0  0  0  0  0  0  0  0  0  0  0
   31.2551   43.8785    0.6566 H   0  0  0  0  0  0  0  0  0  0  0  0
   32.6163   41.8854    0.3514 H   0  0  0  0  0  0  0  0  0  0  0  0
   28.1212   41.4737    2.4323 H   0  0  0  0  0  0  0  0  0  0  0  0
   29.4760   39.4735    2.1127 H   0  0  0  0  0  0  0  0  0  0  0  0
   33.3045   40.2003   -0.0019 H   0  0  0  0  0  0  0  0  0  0  0  0
   33.0273   36.5692    0.9674 H   0  0  0  0  0  0  0  0  0  0  0  0
   34.7681   34.9740    0.4338 H   0  0  0  0  0  0  0  0  0  0  0  0
   36.8206   35.6945   -0.8076 H   0  0  0  0  0  0  0  0  0  0  0  0
   38.1045   37.4207   -1.9288 H   0  0  0  0  0  0  0  0  0  0  0  0
   38.3264   39.8160   -2.6289 H   0  0  0  0  0  0  0  0  0  0  0  0
   36.4649   41.4630   -2.0492 H   0  0  0  0  0  0  0  0  0  0  0  0
  1  2  2  0
  1  6  1  0
  1 34  1  0
  2  3  1  0
  2 35  1  0
  3  4  2  0
  3 36  1  0
  4  5  1  0
  4 37  1  0
  5  6  2  0
  5 38  1  0
  6  7  1  0
  7  8  1  0
  7 14  1  0
  7 39  1  1
  8  9  1  0
  8 10  1  0
  8 11  1  0
  9 40  1  0
  9 41  1  0
  9 42  1  0
 10 43  1  0
 10 44  1  0
 10 45  1  0
 11 12  1  0
 12 13  2  0
 12 14  1  0
 14 15  1  0
 15 16  2  0
 15 18  1  0
 16 17  1  0
 16 46  1  0
 17 20  2  0
 17 47  1  0
 18 19  2  0
 18 48  1  0
 19 20  1  0
 19 49  1  0
 20 21  1  0
 21 22  2  0
 21 23  1  0
 23 24  1  0
 23 50  1  0
 24 25  2  0
 24 28  1  0
 25 26  1  0
 25 51  1  0
 26 27  2  0
 26 52  1  0
 27 29  1  0
 27 53  1  0
 28 29  2  0
 28 33  1  0
 29 30  1  0
 30 31  2  0
 30 54  1  0
 31 32  1  0
 31 55  1  0
 32 33  2  0
 32 56  1  0
M  END
$$$$
