Hermite
 OpenBabel03062318103D

 63 66  0  0  0  0  0  0  0  0999 V2000
   30.3290  177.8974  111.8521 C   0  0  0  0  0  0  0  0  0  0  0  0
   29.0202  178.2199  112.1479 O   0  0  0  0  0  0  0  0  0  0  0  0
   28.1855  178.3309  111.0546 C   0  0  0  0  0  0  0  0  0  0  0  0
   26.8021  178.6827  111.5153 C   0  0  0  0  0  0  0  0  0  0  0  0
   26.1966  179.7856  111.1326 N   0  0  0  0  0  0  0  0  0  0  0  0
   24.9988  179.7504  111.7408 N   0  0  0  0  0  0  0  0  0  0  0  0
   24.8292  178.6315  112.5128 C   0  0  0  0  0  0  0  0  0  0  0  0
   26.0064  177.9189  112.3752 C   0  0  0  0  0  0  0  0  0  0  0  0
   26.3585  176.6067  113.0108 C   0  0  0  0  0  0  0  0  0  0  0  0
   27.4194  176.0080  112.8599 O   0  0  0  0  0  0  0  0  0  0  0  0
   25.3700  176.1464  113.7782 N   0  0  0  0  0  0  0  0  0  0  0  0
   25.3950  174.8979  114.5347 C   0  0  0  0  0  0  0  0  0  0  0  0
   24.5454  175.0403  115.7627 C   0  0  0  0  0  0  0  0  0  0  0  0
   25.1122  175.4147  116.9778 C   0  0  0  0  0  0  0  0  0  0  0  0
   24.3161  175.5447  118.1137 C   0  0  0  0  0  0  0  0  0  0  0  0
   22.9474  175.3016  118.0447 C   0  0  0  0  0  0  0  0  0  0  0  0
   22.3849  174.9275  116.8276 C   0  0  0  0  0  0  0  0  0  0  0  0
   23.1789  174.7974  115.6927 C   0  0  0  0  0  0  0  0  0  0  0  0
   22.6192  174.4333  114.5175 F   0  0  0  0  0  0  0  0  0  0  0  0
   24.8875  175.9163  119.3136 O   0  0  0  0  0  0  0  0  0  0  0  0
   24.0082  176.0148  120.3727 C   0  0  0  0  0  0  0  0  0  0  0  0
   23.9988  180.8023  111.5827 C   0  0  0  0  0  0  0  0  0  0  0  0
   24.2006  181.8470  112.6401 C   0  0  0  0  0  0  0  0  0  0  0  0
   25.4732  182.0899  113.1431 C   0  0  0  0  0  0  0  0  0  0  0  0
   25.6601  183.0578  114.1228 C   0  0  0  0  0  0  0  0  0  0  0  0
   24.5744  183.7828  114.5995 C   0  0  0  0  0  0  0  0  0  0  0  0
   23.3018  183.5399  114.0965 C   0  0  0  0  0  0  0  0  0  0  0  0
   23.1148  182.5720  113.1168 C   0  0  0  0  0  0  0  0  0  0  0  0
   24.7762  184.8275  115.6569 C   0  0  0  0  0  0  0  0  0  0  0  0
   23.5714  184.9308  116.4750 N   0  0  0  0  0  0  0  0  0  0  0  0
   23.0794  183.8642  117.1895 C   0  0  0  0  0  0  0  0  0  0  0  0
   21.9693  183.9309  117.9532 C   0  0  0  0  0  0  0  0  0  0  0  0
   21.2816  185.2146  118.0000 C   0  0  0  0  0  0  0  0  0  0  0  0
   21.7802  186.2580  117.2888 C   0  0  0  0  0  0  0  0  0  0  0  0
   22.9856  186.1600  116.4683 C   0  0  0  0  0  0  0  0  0  0  0  0
   23.4457  187.0990  115.8202 O   0  0  0  0  0  0  0  0  0  0  0  0
   30.9049  177.8332  112.7753 H   0  0  0  0  0  0  0  0  0  0  0  0
   30.7566  178.6673  111.2099 H   0  0  0  0  0  0  0  0  0  0  0  0
   30.3592  176.9370  111.3376 H   0  0  0  0  0  0  0  0  0  0  0  0
   28.5573  179.1121  110.3915 H   0  0  0  0  0  0  0  0  0  0  0  0
   28.1598  177.3818  110.5192 H   0  0  0  0  0  0  0  0  0  0  0  0
   23.9157  178.4566  113.0678 H   0  0  0  0  0  0  0  0  0  0  0  0
   24.4831  176.6051  113.9300 H   0  0  0  0  0  0  0  0  0  0  0  0
   25.0058  174.0899  113.9153 H   0  0  0  0  0  0  0  0  0  0  0  0
   26.4203  174.6704  114.8266 H   0  0  0  0  0  0  0  0  0  0  0  0
   26.1752  175.6053  117.0394 H   0  0  0  0  0  0  0  0  0  0  0  0
   22.3277  175.4020  118.9256 H   0  0  0  0  0  0  0  0  0  0  0  0
   21.3240  174.7352  116.7575 H   0  0  0  0  0  0  0  0  0  0  0  0
   24.5516  176.3119  121.2696 H   0  0  0  0  0  0  0  0  0  0  0  0
   23.5313  175.0490  120.5399 H   0  0  0  0  0  0  0  0  0  0  0  0
   23.2472  176.7612  120.1449 H   0  0  0  0  0  0  0  0  0  0  0  0
   24.1028  181.2575  110.5978 H   0  0  0  0  0  0  0  0  0  0  0  0
   23.0016  180.3734  111.6813 H   0  0  0  0  0  0  0  0  0  0  0  0
   26.3185  181.5255  112.7720 H   0  0  0  0  0  0  0  0  0  0  0  0
   26.6509  183.2470  114.5144 H   0  0  0  0  0  0  0  0  0  0  0  0
   22.4565  184.1043  114.4676 H   0  0  0  0  0  0  0  0  0  0  0  0
   22.1240  182.3828  112.7252 H   0  0  0  0  0  0  0  0  0  0  0  0
   25.6205  184.5482  116.2871 H   0  0  0  0  0  0  0  0  0  0  0  0
   24.9779  185.7887  115.1841 H   0  0  0  0  0  0  0  0  0  0  0  0
   23.6834  182.9727  117.0674 H   0  0  0  0  0  0  0  0  0  0  0  0
   21.6060  183.0727  118.5050 H   0  0  0  0  0  0  0  0  0  0  0  0
   20.3842  185.3336  118.5950 H   0  0  0  0  0  0  0  0  0  0  0  0
   21.2798  187.2144  117.3152 H   0  0  0  0  0  0  0  0  0  0  0  0
  1  2  1  0  0  0  0
  1 37  1  0  0  0  0
  1 38  1  0  0  0  0
  1 39  1  0  0  0  0
  2  3  1  0  0  0  0
  3  4  1  0  0  0  0
  3 40  1  0  0  0  0
  3 41  1  0  0  0  0
  4  8  1  0  0  0  0
  4  5  2  0  0  0  0
  5  6  1  0  0  0  0
  6  7  1  0  0  0  0
  6 22  1  0  0  0  0
  7  8  2  0  0  0  0
  7 42  1  0  0  0  0
  8  9  1  0  0  0  0
  9 10  2  0  0  0  0
  9 11  1  0  0  0  0
 11 12  1  0  0  0  0
 11 43  1  0  0  0  0
 12 13  1  0  0  0  0
 12 44  1  0  0  0  0
 12 45  1  0  0  0  0
 13 18  1  0  0  0  0
 13 14  2  0  0  0  0
 14 15  1  0  0  0  0
 14 46  1  0  0  0  0
 15 16  2  0  0  0  0
 15 20  1  0  0  0  0
 16 17  1  0  0  0  0
 16 47  1  0  0  0  0
 17 18  2  0  0  0  0
 17 48  1  0  0  0  0
 18 19  1  0  0  0  0
 20 21  1  0  0  0  0
 21 49  1  0  0  0  0
 21 50  1  0  0  0  0
 21 51  1  0  0  0  0
 22 23  1  0  0  0  0
 22 52  1  0  0  0  0
 22 53  1  0  0  0  0
 23 28  1  0  0  0  0
 23 24  2  0  0  0  0
 24 25  1  0  0  0  0
 24 54  1  0  0  0  0
 25 26  2  0  0  0  0
 25 55  1  0  0  0  0
 26 27  1  0  0  0  0
 26 29  1  0  0  0  0
 27 28  2  0  0  0  0
 27 56  1  0  0  0  0
 28 57  1  0  0  0  0
 29 30  1  0  0  0  0
 29 58  1  0  0  0  0
 29 59  1  0  0  0  0
 30 35  1  0  0  0  0
 30 31  1  0  0  0  0
 31 32  2  0  0  0  0
 31 60  1  0  0  0  0
 32 33  1  0  0  0  0
 32 61  1  0  0  0  0
 33 34  2  0  0  0  0
 33 62  1  0  0  0  0
 34 35  1  0  0  0  0
 34 63  1  0  0  0  0
 35 36  2  0  0  0  0
M  END
$$$$
