ZHM_ref
     RDKit          3D

 47 50  0  0  1  0  0  0  0  0999 V2000
   11.1860   -5.0030    1.1520 C   0  0  0  0  0  0  0  0  0  0  0  0
   10.6020   -4.0110    2.1300 C   0  0  0  0  0  0  0  0  0  0  0  0
   11.5010   -7.7440   -1.2210 C   0  0  0  0  0  0  0  0  0  0  0  0
    7.8990   -6.0080   -4.6940 C   0  0  0  0  0  0  0  0  0  0  0  0
    7.3530   -6.2500   -3.4510 C   0  0  0  0  0  0  0  0  0  0  0  0
    7.3410   -7.5320   -2.9780 C   0  0  0  0  0  0  0  0  0  0  0  0
    7.3500   -7.3780   -0.6130 C   0  0  0  0  0  0  0  0  0  0  0  0
    9.1370   -6.5330    0.4780 C   0  0  0  0  0  0  0  0  0  0  0  0
   10.5690   -6.0650    0.4360 C   0  0  0  0  0  0  0  0  0  0  0  0
   11.3020   -7.3370   -2.6320 C   0  0  0  0  0  0  0  0  0  0  0  0
   11.2300   -8.5700   -3.5380 C   0  0  0  0  0  0  0  0  0  0  0  0
   12.6860   -9.7960   -1.9700 C   0  0  0  0  0  0  0  0  0  0  0  0
   12.7570   -8.5730   -1.0660 C   0  0  0  0  0  0  0  0  0  0  0  0
    8.4280   -6.5260    1.6820 C   0  0  0  0  0  0  0  0  0  0  0  0
    7.1140   -6.9710    1.7040 C   0  0  0  0  0  0  0  0  0  0  0  0
    6.5690   -7.4160    0.5180 C   0  0  0  0  0  0  0  0  0  0  0  0
    7.8370   -8.5470   -3.7650 C   0  0  0  0  0  0  0  0  0  0  0  0
    8.3810   -8.3010   -5.0180 C   0  0  0  0  0  0  0  0  0  0  0  0
    8.4110   -7.0140   -5.4840 C   0  0  0  0  0  0  0  0  0  0  0  0
    8.5940   -6.9610   -0.6550 N   0  0  0  0  0  0  0  0  0  0  0  0
   12.4710   -4.9810    0.7840 N   0  0  0  0  0  0  0  0  0  0  0  0
   12.6910   -5.9320   -0.0820 N   0  0  0  0  0  0  0  0  0  0  0  0
   11.5650   -6.5750   -0.2950 N   0  0  0  0  0  0  0  0  0  0  0  0
   12.4510   -9.3960   -3.3740 N   0  0  0  0  0  0  0  0  0  0  0  0
    6.7520   -7.8280   -1.7640 O   0  0  0  0  0  0  0  0  0  0  0  0
    7.8880   -4.2440   -5.3800 Br  0  0  0  0  0  0  0  0  0  0  0  0
    7.7640  -10.3230   -3.0920 Br  0  0  0  0  0  0  0  0  0  0  0  0
   11.0685   -3.0311    2.0378 H   0  0  0  0  0  0  0  0  0  0  0  0
    9.5354   -3.8626    1.9723 H   0  0  0  0  0  0  0  0  0  0  0  0
   10.7440   -4.3335    3.1604 H   0  0  0  0  0  0  0  0  0  0  0  0
   10.6615   -8.3338   -0.8529 H   0  0  0  0  0  0  0  0  0  0  0  0
    6.9410   -5.4422   -2.8639 H   0  0  0  0  0  0  0  0  0  0  0  0
   12.0740   -6.6546   -2.9677 H   0  0  0  0  0  0  0  0  0  0  0  0
   10.3492   -6.8179   -2.7385 H   0  0  0  0  0  0  0  0  0  0  0  0
   11.1845   -8.3136   -4.5966 H   0  0  0  0  0  0  0  0  0  0  0  0
   10.4065   -9.2346   -3.2855 H   0  0  0  0  0  0  0  0  0  0  0  0
   11.8627  -10.4599   -1.7014 H   0  0  0  0  0  0  0  0  0  0  0  0
   13.6113  -10.3707   -1.9868 H   0  0  0  0  0  0  0  0  0  0  0  0
   12.8305   -8.9296   -0.0392 H   0  0  0  0  0  0  0  0  0  0  0  0
   13.6621   -7.9976   -1.2655 H   0  0  0  0  0  0  0  0  0  0  0  0
    8.8819   -6.1754    2.5958 H   0  0  0  0  0  0  0  0  0  0  0  0
    6.5143   -6.9793    2.5953 H   0  0  0  0  0  0  0  0  0  0  0  0
    5.5522   -7.7770    0.4814 H   0  0  0  0  0  0  0  0  0  0  0  0
    8.7676   -9.1098   -5.6206 H   0  0  0  0  0  0  0  0  0  0  0  0
    8.8272   -6.7893   -6.4533 H   0  0  0  0  0  0  0  0  0  0  0  0
   13.2420   -8.8612   -3.7140 H   0  0  0  0  0  0  0  0  0  0  0  0
   12.3900  -10.2193   -3.9676 H   0  0  0  0  0  0  0  0  0  0  0  0
  1  2  1  0
  1  9  2  0
  1 21  1  0
  2 28  1  0
  2 29  1  0
  2 30  1  0
  3 10  1  0
  3 13  1  0
  3 23  1  0
  3 31  1  0
  4  5  2  0
  4 19  1  0
  4 26  1  0
  5  6  1  0
  5 32  1  0
  6 17  2  0
  6 25  1  0
  7 16  1  0
  7 20  2  0
  7 25  1  0
  8  9  1  0
  8 14  2  0
  8 20  1  0
  9 23  1  0
 10 11  1  0
 10 33  1  0
 10 34  1  0
 11 24  1  0
 11 35  1  0
 11 36  1  0
 12 13  1  0
 12 24  1  0
 12 37  1  0
 12 38  1  0
 13 39  1  0
 13 40  1  0
 14 15  1  0
 14 41  1  0
 15 16  2  0
 15 42  1  0
 16 43  1  0
 17 18  1  0
 17 27  1  0
 18 19  2  0
 18 44  1  0
 19 45  1  0
 21 22  2  0
 22 23  1  0
 24 46  1  0
 24 47  1  0
M  CHG  1  24   1
M  END
$$$$
