43929
  PyMOL2.4          3D                             0

 54 58  0  0  1  0  0  0  0  0999 V2000
   45.6890   36.9210   67.9950 C   0  0  0  0  0  0  0  0  0  0  0  0
   47.0200   36.9370   67.6300 O   0  0  0  0  0  0  0  0  0  0  0  0
   47.2620   36.6960   66.2930 C   0  0  0  0  0  0  0  0  0  0  0  0
   46.2380   36.4970   65.4090 C   0  0  0  0  0  0  0  0  0  0  0  0
   46.5850   36.1860   64.0800 C   0  0  0  0  0  0  0  0  0  0  0  0
   47.8570   36.2130   63.6410 N   0  0  0  0  0  0  0  0  0  0  0  0
   48.8520   36.5140   64.5440 C   0  0  0  0  0  0  0  0  0  0  0  0
   48.5580   36.7020   65.8840 N   0  0  0  0  0  0  0  0  0  0  0  0
   50.2130   36.5300   64.0910 N   0  0  0  0  0  0  0  0  0  0  0  0
   50.6350   36.3730   62.6740 C   0  0  0  0  0  0  0  0  0  0  0  0
   51.8330   37.2680   62.4910 C   0  0  1  0  0  0  0  0  0  0  0  0
   51.5190   38.4330   61.6040 C   0  0  0  0  0  0  0  0  0  0  0  0
   51.6170   39.6060   62.5640 N   0  0  0  0  0  0  0  0  0  0  0  0
   52.5780   39.2820   63.6300 C   0  0  0  0  0  0  0  0  0  0  0  0
   52.3550   37.7540   63.8440 C   0  0  1  0  0  0  0  0  0  0  0  0
   51.2460   37.3990   64.7530 C   0  0  0  0  0  0  0  0  0  0  0  0
   50.6990   40.5740   62.7590 C   0  0  0  0  0  0  0  0  0  0  0  0
   50.7380   41.3160   63.7790 O   0  0  0  0  0  0  0  0  0  0  0  0
   49.6540   40.5990   61.7050 C   0  0  0  0  0  0  0  0  0  0  0  0
   48.2710   40.3480   62.0870 C   0  0  0  0  0  0  0  0  0  0  0  0
   47.8770   40.0570   63.3860 F   0  0  0  0  0  0  0  0  0  0  0  0
   47.2630   40.3710   61.1630 C   0  0  0  0  0  0  0  0  0  0  0  0
   47.6290   40.5720   59.7670 C   0  0  0  0  0  0  0  0  0  0  0  0
   48.9600   40.7820   59.4620 C   0  0  0  0  0  0  0  0  0  0  0  0
   49.9530   40.9580   60.3990 C   0  0  0  0  0  0  0  0  0  0  0  0
   51.2800   41.3110   59.9250 N   0  0  0  0  0  0  0  0  0  0  0  0
   51.7460   41.1580   58.6560 N   0  0  0  0  0  0  0  0  0  0  0  0
   53.0020   41.5020   58.7360 C   0  0  0  0  0  0  0  0  0  0  0  0
   53.2580   41.9920   60.0010 C   0  0  0  0  0  0  0  0  0  0  0  0
   52.1890   41.9590   60.7050 N   0  0  0  0  0  0  0  0  0  0  0  0
   45.6110   35.9090   63.1420 O   0  0  0  0  0  0  0  0  0  0  0  0
   46.0800   35.6930   61.8620 C   0  0  0  0  0  0  0  0  0  0  0  0
   45.6020   37.1200   69.0630 H   0  0  0  0  0  0  0  0  0  0  0  0
   45.1500   37.6860   67.4370 H   0  0  0  0  0  0  0  0  0  0  0  0
   45.2640   35.9420   67.7720 H   0  0  0  0  0  0  0  0  0  0  0  0
   45.2090   36.5090   65.7320 H   0  0  0  0  0  0  0  0  0  0  0  0
   49.8110   36.5880   61.9930 H   0  0  0  0  0  0  0  0  0  0  0  0
   50.9080   35.3290   62.5200 H   0  0  0  0  0  0  0  0  0  0  0  0
   52.6140   36.6840   62.0000 H   0  0  0  0  0  0  0  0  0  0  0  0
   50.5650   38.3320   61.0880 H   0  0  0  0  0  0  0  0  0  0  0  0
   52.2850   38.5570   60.8380 H   0  0  0  0  0  0  0  0  0  0  0  0
   52.4670   39.8370   64.5640 H   0  0  0  0  0  0  0  0  0  0  0  0
   53.5820   39.4780   63.2550 H   0  0  0  0  0  0  0  0  0  0  0  0
   53.2710   37.2410   64.1380 H   0  0  0  0  0  0  0  0  0  0  0  0
   51.6240   36.8830   65.6370 H   0  0  0  0  0  0  0  0  0  0  0  0
   50.7450   38.2970   65.1190 H   0  0  0  0  0  0  0  0  0  0  0  0
   46.2390   40.1900   61.4570 H   0  0  0  0  0  0  0  0  0  0  0  0
   46.8800   40.5400   58.9900 H   0  0  0  0  0  0  0  0  0  0  0  0
   49.2020   40.9420   58.4200 H   0  0  0  0  0  0  0  0  0  0  0  0
   53.6610   41.4320   57.8820 H   0  0  0  0  0  0  0  0  0  0  0  0
   54.1740   42.4070   60.3970 H   0  0  0  0  0  0  0  0  0  0  0  0
   45.2410   35.4830   61.1990 H   0  0  0  0  0  0  0  0  0  0  0  0
   46.6060   36.5810   61.5130 H   0  0  0  0  0  0  0  0  0  0  0  0
   46.7630   34.8430   61.8640 H   0  0  0  0  0  0  0  0  0  0  0  0
  1  2  1  0  0  0  0
  1 33  1  0  0  0  0
  1 34  1  0  0  0  0
  1 35  1  0  0  0  0
  2  3  1  0  0  0  0
  3  4  1  0  0  0  0
  3  8  2  0  0  0  0
  4  5  2  0  0  0  0
  4 36  1  0  0  0  0
  5  6  1  0  0  0  0
  5 31  1  0  0  0  0
  6  7  2  0  0  0  0
  7  8  1  0  0  0  0
  7  9  1  0  0  0  0
  9 10  1  0  0  0  0
  9 16  1  0  0  0  0
 10 11  1  0  0  0  0
 10 37  1  0  0  0  0
 10 38  1  0  0  0  0
 11 12  1  0  0  0  0
 11 15  1  0  0  0  0
 11 39  1  0  0  0  0
 12 13  1  0  0  0  0
 12 40  1  0  0  0  0
 12 41  1  0  0  0  0
 13 14  1  0  0  0  0
 13 17  1  0  0  0  0
 14 15  1  0  0  0  0
 14 42  1  0  0  0  0
 14 43  1  0  0  0  0
 15 16  1  0  0  0  0
 15 44  1  0  0  0  0
 16 45  1  0  0  0  0
 16 46  1  0  0  0  0
 17 18  2  0  0  0  0
 17 19  1  0  0  0  0
 19 20  1  0  0  0  0
 19 25  2  0  0  0  0
 20 21  1  0  0  0  0
 20 22  2  0  0  0  0
 22 23  1  0  0  0  0
 22 47  1  0  0  0  0
 23 24  2  0  0  0  0
 23 48  1  0  0  0  0
 24 25  1  0  0  0  0
 24 49  1  0  0  0  0
 25 26  1  0  0  0  0
 26 27  1  0  0  0  0
 26 30  1  0  0  0  0
 27 28  2  0  0  0  0
 28 29  1  0  0  0  0
 28 50  1  0  0  0  0
 29 30  2  0  0  0  0
 29 51  1  0  0  0  0
 31 32  1  0  0  0  0
 32 52  1  0  0  0  0
 32 53  1  0  0  0  0
 32 54  1  0  0  0  0
M  END
$$$$
