K5K_ref
     RDKit          3D

 51 53  0  0  1  0  0  0  0  0999 V2000
   18.7710   32.4090   16.5020 C   0  0  0  0  0  0  0  0  0  0  0  0
   18.5740   32.1160   17.8530 C   0  0  0  0  0  0  0  0  0  0  0  0
   18.2330   33.2070   18.6720 C   0  0  0  0  0  0  0  0  0  0  0  0
   18.3540   31.3780   19.9880 C   0  0  0  0  0  0  0  0  0  0  0  0
   18.2610   30.5580   21.2330 C   0  0  0  0  0  0  0  0  0  0  0  0
   19.0700   29.4840   21.2770 N   0  0  0  0  0  0  0  0  0  0  0  0
   17.7300   33.5990   21.1180 C   0  0  0  0  0  0  0  0  0  0  0  0
   20.1840   27.4760   22.0970 C   0  0  0  0  0  0  0  0  0  0  0  0
   16.0180   26.4960   20.8660 C   0  0  0  0  0  0  0  0  0  0  0  0
   15.2570   26.3040   22.0090 C   0  0  0  0  0  0  0  0  0  0  0  0
   15.7060   26.7550   23.2410 C   0  0  0  0  0  0  0  0  0  0  0  0
   18.6380   33.6950   15.9790 C   0  0  0  0  0  0  0  0  0  0  0  0
   18.0980   36.1670   16.2910 C   0  0  0  0  0  0  0  0  0  0  0  0
   18.9960   28.4130   22.2700 C   0  0  2  0  0  0  0  0  0  0  0  0
   17.6860   27.6520   22.1810 C   0  0  0  0  0  0  0  0  0  0  0  0
   17.2170   27.1800   20.9590 C   0  0  0  0  0  0  0  0  0  0  0  0
   18.2720   34.7630   16.8080 C   0  0  0  0  0  0  0  0  0  0  0  0
   16.9070   27.4410   23.3140 C   0  0  0  0  0  0  0  0  0  0  0  0
   13.2010   25.5700   20.2070 C   0  0  0  0  0  0  0  0  0  0  0  0
   13.6130   24.4370   19.2760 C   0  0  0  0  0  0  0  0  0  0  0  0
   18.0860   34.4960   18.1630 C   0  0  0  0  0  0  0  0  0  0  0  0
   18.6560   30.9760   18.7090 C   0  0  0  0  0  0  0  0  0  0  0  0
   18.0860   32.7490   19.9820 N   0  0  0  0  0  0  0  0  0  0  0  0
   17.4640   30.8380   22.1290 O   0  0  0  0  0  0  0  0  0  0  0  0
   21.4140   28.1810   22.1320 O   0  0  0  0  0  0  0  0  0  0  0  0
   12.7650   26.0770   22.7310 O   0  0  0  0  0  0  0  0  0  0  0  0
   14.0120   24.0230   22.1650 O   0  0  0  0  0  0  0  0  0  0  0  0
   14.7270   23.8850   19.4430 O   0  0  0  0  0  0  0  0  0  0  0  0
   12.8040   24.1350   18.3680 O   0  0  0  0  0  0  0  0  0  0  0  0
   13.7380   25.4120   21.9080 S   0  0  0  0  0  0  0  0  0  0  0  0
   19.2330   31.1040   15.4800 Cl  0  0  0  0  0  0  0  0  0  0  0  0
   18.8910   33.9800   14.2980 Cl  0  0  0  0  0  0  0  0  0  0  0  0
   19.8074   29.4071   20.5883 H   0  0  0  0  0  0  0  0  0  0  0  0
   18.1737   33.2312   22.0411 H   0  0  0  0  0  0  0  0  0  0  0  0
   18.1103   34.6088   20.9651 H   0  0  0  0  0  0  0  0  0  0  0  0
   16.6446   33.6313   21.2172 H   0  0  0  0  0  0  0  0  0  0  0  0
   20.1252   26.9208   21.1599 H   0  0  0  0  0  0  0  0  0  0  0  0
   20.1944   26.7324   22.8948 H   0  0  0  0  0  0  0  0  0  0  0  0
   15.7125   26.1462   19.9052 H   0  0  0  0  0  0  0  0  0  0  0  0
   15.1206   26.5902   24.1340 H   0  0  0  0  0  0  0  0  0  0  0  0
   18.0811   36.8975   17.0990 H   0  0  0  0  0  0  0  0  0  0  0  0
   18.9305   36.4416   15.6426 H   0  0  0  0  0  0  0  0  0  0  0  0
   17.1809   36.2467   15.7079 H   0  0  0  0  0  0  0  0  0  0  0  0
   19.0794   28.8746   23.2571 H   0  0  0  0  0  0  0  0  0  0  0  0
   17.7975   27.3354   20.0603 H   0  0  0  0  0  0  0  0  0  0  0  0
   17.2417   27.8056   24.2742 H   0  0  0  0  0  0  0  0  0  0  0  0
   12.1121   25.6241   20.2526 H   0  0  0  0  0  0  0  0  0  0  0  0
   13.5410   26.5207   19.8283 H   0  0  0  0  0  0  0  0  0  0  0  0
   17.8131   35.3100   18.8184 H   0  0  0  0  0  0  0  0  0  0  0  0
   18.8868   29.9658   18.4118 H   0  0  0  0  0  0  0  0  0  0  0  0
   21.5649   28.6074   21.2787 H   0  0  0  0  0  0  0  0  0  0  0  0
  1  2  2  0
  1 12  1  0
  1 31  1  0
  2  3  1  0
  2 22  1  0
  3 21  2  0
  3 23  1  0
  4  5  1  0
  4 22  2  0
  4 23  1  0
  5  6  1  0
  5 24  2  0
  6 14  1  0
  6 33  1  0
  7 23  1  0
  7 34  1  0
  7 35  1  0
  7 36  1  0
  8 14  1  0
  8 25  1  0
  8 37  1  0
  8 38  1  0
  9 10  2  0
  9 16  1  0
  9 39  1  0
 10 11  1  0
 10 30  1  0
 11 18  2  0
 11 40  1  0
 12 17  2  0
 12 32  1  0
 13 17  1  0
 13 41  1  0
 13 42  1  0
 13 43  1  0
 14 15  1  0
 14 44  1  1
 15 16  2  0
 15 18  1  0
 16 45  1  0
 17 21  1  0
 18 46  1  0
 19 20  1  0
 19 30  1  0
 19 47  1  0
 19 48  1  0
 20 28  1  0
 20 29  2  0
 21 49  1  0
 22 50  1  0
 25 51  1  0
 26 30  2  0
 27 30  2  0
M  CHG  1  28  -1
M  END
$$$$
