NI0_ref
     RDKit          3D

 63 65  0  0  1  0  0  0  0  0999 V2000
   25.2740  -20.4470   22.7100 C   0  0  0  0  0  0  0  0  0  0  0  0
   23.9730  -21.1600   22.4980 C   0  0  0  0  0  0  0  0  0  0  0  0
   23.9090  -21.8460   21.2370 N   0  0  0  0  0  0  0  0  0  0  0  0
   23.4160  -23.2150   21.2580 C   0  0  0  0  0  0  0  0  0  0  0  0
   25.0440  -21.5520   20.4150 C   0  0  0  0  0  0  0  0  0  0  0  0
   26.3350  -21.8740   21.1040 C   0  0  0  0  0  0  0  0  0  0  0  0
   26.4370  -21.2250   22.3790 N   0  0  0  0  0  0  0  0  0  0  0  0
   27.9190  -20.6760   22.7910 S   0  0  0  0  0  0  0  0  0  0  0  0
   28.0710  -20.5790   24.2570 O   0  0  0  0  0  0  0  0  0  0  0  0
   28.9180  -21.5980   22.2020 O   0  0  0  0  0  0  0  0  0  0  0  0
   28.0580  -19.0290   22.1340 C   0  0  0  0  0  0  0  0  0  0  0  0
   28.3690  -18.8750   20.7700 C   0  0  0  0  0  0  0  0  0  0  0  0
   27.8430  -17.9220   22.9580 C   0  0  0  0  0  0  0  0  0  0  0  0
   27.9490  -16.6220   22.4100 C   0  0  0  0  0  0  0  0  0  0  0  0
   28.2580  -16.4580   21.0430 C   0  0  0  0  0  0  0  0  0  0  0  0
   28.3800  -15.1760   20.4820 O   0  0  0  0  0  0  0  0  0  0  0  0
   27.5360  -14.1100   20.8610 C   0  0  0  0  0  0  0  0  0  0  0  0
   27.8670  -12.7420   20.2900 C   0  0  0  0  0  0  0  0  0  0  0  0
   29.0630  -12.6440   19.3190 C   0  0  0  0  0  0  0  0  0  0  0  0
   28.4620  -17.5930   20.2330 C   0  0  0  0  0  0  0  0  0  0  0  0
   28.8330  -17.4900   18.7560 C   0  0  0  0  0  0  0  0  0  0  0  0
   28.1900  -18.2760   17.8700 N   0  0  0  0  0  0  0  0  0  0  0  0
   29.8250  -16.6580   18.3710 N   0  0  0  0  0  0  0  0  0  0  0  0
   30.1790  -16.5700   17.0490 C   0  0  0  0  0  0  0  0  0  0  0  0
   31.1870  -15.6950   16.6870 O   0  0  0  0  0  0  0  0  0  0  0  0
   29.5130  -17.3700   16.0870 C   0  0  0  0  0  0  0  0  0  0  0  0
   29.9060  -17.2930   14.5960 C   0  0  0  0  0  0  0  0  0  0  0  0
   31.0950  -18.1150   14.1860 C   0  0  0  0  0  0  0  0  0  0  0  0
   28.4900  -18.2530   16.5540 C   0  0  0  0  0  0  0  0  0  0  0  0
   27.6830  -19.1590   15.6430 C   0  0  0  0  0  0  0  0  0  0  0  0
   26.3560  -18.5030   15.2810 C   0  0  0  0  0  0  0  0  0  0  0  0
   25.3476  -20.1217   23.7435 H   0  0  0  0  0  0  0  0  0  0  0  0
   25.2547  -19.5680   22.0628 H   0  0  0  0  0  0  0  0  0  0  0  0
   23.1135  -20.5012   22.6267 H   0  0  0  0  0  0  0  0  0  0  0  0
   23.9270  -21.9607   23.2336 H   0  0  0  0  0  0  0  0  0  0  0  0
   23.2100  -23.5685   20.2472 H   0  0  0  0  0  0  0  0  0  0  0  0
   24.1393  -23.8899   21.7153 H   0  0  0  0  0  0  0  0  0  0  0  0
   22.4908  -23.2702   21.8313 H   0  0  0  0  0  0  0  0  0  0  0  0
   24.9691  -20.4850   20.1944 H   0  0  0  0  0  0  0  0  0  0  0  0
   24.9723  -22.0822   19.4642 H   0  0  0  0  0  0  0  0  0  0  0  0
   27.1644  -21.5760   20.4623 H   0  0  0  0  0  0  0  0  0  0  0  0
   26.4439  -22.9477   21.2613 H   0  0  0  0  0  0  0  0  0  0  0  0
   28.5373  -19.7488   20.1556 H   0  0  0  0  0  0  0  0  0  0  0  0
   27.5996  -18.0451   24.0036 H   0  0  0  0  0  0  0  0  0  0  0  0
   27.7834  -15.7762   23.0565 H   0  0  0  0  0  0  0  0  0  0  0  0
   27.4972  -14.0099   21.9449 H   0  0  0  0  0  0  0  0  0  0  0  0
   26.5337  -14.3729   20.5465 H   0  0  0  0  0  0  0  0  0  0  0  0
   28.0367  -12.0423   21.1097 H   0  0  0  0  0  0  0  0  0  0  0  0
   26.9856  -12.3609   19.7760 H   0  0  0  0  0  0  0  0  0  0  0  0
   29.1602  -11.6340   18.9372 H   0  0  0  0  0  0  0  0  0  0  0  0
   29.9871  -12.8506   19.8472 H   0  0  0  0  0  0  0  0  0  0  0  0
   28.9807  -13.3350   18.4808 H   0  0  0  0  0  0  0  0  0  0  0  0
   30.3058  -16.0752   19.0442 H   0  0  0  0  0  0  0  0  0  0  0  0
   30.0935  -16.2518   14.3295 H   0  0  0  0  0  0  0  0  0  0  0  0
   29.0532  -17.5613   13.9763 H   0  0  0  0  0  0  0  0  0  0  0  0
   31.2749  -18.0441   13.1158 H   0  0  0  0  0  0  0  0  0  0  0  0
   31.9991  -17.7790   14.6940 H   0  0  0  0  0  0  0  0  0  0  0  0
   30.9502  -19.1671   14.4274 H   0  0  0  0  0  0  0  0  0  0  0  0
   27.5082  -20.1106   16.1477 H   0  0  0  0  0  0  0  0  0  0  0  0
   28.2496  -19.4183   14.7527 H   0  0  0  0  0  0  0  0  0  0  0  0
   25.7978  -19.1176   14.5743 H   0  0  0  0  0  0  0  0  0  0  0  0
   25.7274  -18.3632   16.1591 H   0  0  0  0  0  0  0  0  0  0  0  0
   26.5055  -17.5244   14.8235 H   0  0  0  0  0  0  0  0  0  0  0  0
  1  2  1  0
  1  7  1  0
  1 32  1  0
  1 33  1  0
  2  3  1  0
  2 34  1  0
  2 35  1  0
  3  4  1  0
  3  5  1  0
  4 36  1  0
  4 37  1  0
  4 38  1  0
  5  6  1  0
  5 39  1  0
  5 40  1  0
  6  7  1  0
  6 41  1  0
  6 42  1  0
  7  8  1  0
  8  9  2  0
  8 10  2  0
  8 11  1  0
 11 12  2  0
 11 13  1  0
 12 20  1  0
 12 43  1  0
 13 14  2  0
 13 44  1  0
 14 15  1  0
 14 45  1  0
 15 16  1  0
 15 20  2  0
 16 17  1  0
 17 18  1  0
 17 46  1  0
 17 47  1  0
 18 19  1  0
 18 48  1  0
 18 49  1  0
 19 50  1  0
 19 51  1  0
 19 52  1  0
 20 21  1  0
 21 22  2  0
 21 23  1  0
 22 29  1  0
 23 24  1  0
 23 53  1  0
 24 25  2  0
 24 26  1  0
 26 27  1  0
 26 29  2  0
 27 28  1  0
 27 54  1  0
 27 55  1  0
 28 56  1  0
 28 57  1  0
 28 58  1  0
 29 30  1  0
 30 31  1  0
 30 59  1  0
 30 60  1  0
 31 61  1  0
 31 62  1  0
 31 63  1  0
M  END
$$$$
