6PU_ref
     RDKit          3D

 70 74  0  0  1  0  0  0  0  0999 V2000
  -15.4740  -24.6340   22.4010 N   0  0  0  0  0  0  0  0  0  0  0  0
  -16.3660  -24.3340   31.9210 N   0  0  0  0  0  0  0  0  0  0  0  0
  -16.2280  -23.4380   22.7930 C   0  0  0  0  0  0  0  0  0  0  0  0
  -17.5030  -23.9890   23.4390 C   0  0  2  0  0  0  0  0  0  0  0  0
  -17.4000  -24.1570   24.9430 C   0  0  0  0  0  0  0  0  0  0  0  0
  -16.5030  -25.0590   25.5010 C   0  0  0  0  0  0  0  0  0  0  0  0
  -16.3890  -25.2030   26.8700 C   0  0  0  0  0  0  0  0  0  0  0  0
  -18.0680  -23.5180   27.1730 C   0  0  0  0  0  0  0  0  0  0  0  0
  -17.7650  -24.2490   31.4500 C   0  0  0  0  0  0  0  0  0  0  0  0
  -15.6070  -24.3950   29.5990 C   0  0  0  0  0  0  0  0  0  0  0  0
  -14.2630  -24.3420   21.6000 C   0  0  2  0  0  0  0  0  0  0  0  0
  -12.4820  -25.8440   22.0750 C   0  0  0  0  0  0  0  0  0  0  0  0
  -11.7060  -26.9930   21.9510 C   0  0  0  0  0  0  0  0  0  0  0  0
  -11.9610  -27.9100   20.9440 C   0  0  0  0  0  0  0  0  0  0  0  0
  -13.7620  -26.5610   20.2170 C   0  0  0  0  0  0  0  0  0  0  0  0
  -14.8020  -26.3730   19.3800 F   0  0  0  0  0  0  0  0  0  0  0  0
  -13.0010  -27.6920   20.0600 C   0  0  0  0  0  0  0  0  0  0  0  0
  -13.5490  -25.6120   21.2050 C   0  0  0  0  0  0  0  0  0  0  0  0
  -12.3370  -24.6980   23.0390 C   0  0  0  0  0  0  0  0  0  0  0  0
  -13.1520  -23.5930   22.3540 C   0  0  0  0  0  0  0  0  0  0  0  0
  -16.5190  -25.3990   21.7000 C   0  0  0  0  0  0  0  0  0  0  0  0
  -17.6900  -25.3410   22.6750 C   0  0  2  0  0  0  0  0  0  0  0  0
  -19.0170  -25.4430   22.0350 N   0  0  0  0  0  0  0  0  0  0  0  0
  -19.1340  -26.5520   21.0830 C   0  0  0  0  0  0  0  0  0  0  0  0
  -20.1100  -25.4720   23.0230 C   0  0  0  0  0  0  0  0  0  0  0  0
  -18.1860  -23.4010   25.7980 C   0  0  0  0  0  0  0  0  0  0  0  0
  -17.1610  -24.4250   27.7360 C   0  0  0  0  0  0  0  0  0  0  0  0
  -16.9880  -24.5230   29.1360 N   0  0  0  0  0  0  0  0  0  0  0  0
  -15.4580  -25.0020   30.9680 C   0  0  0  0  0  0  0  0  0  0  0  0
  -16.0310  -23.9980   33.4840 S   0  0  0  0  0  0  0  0  0  0  0  0
  -16.3530  -25.1740   34.2260 O   0  0  0  0  0  0  0  0  0  0  0  0
  -14.3080  -23.7260   33.6190 C   0  0  0  0  0  0  0  0  0  0  0  0
  -16.7050  -22.7820   33.8040 O   0  0  0  0  0  0  0  0  0  0  0  0
  -17.8220  -23.7180   30.0310 C   0  0  0  0  0  0  0  0  0  0  0  0
  -16.4255  -22.8496   21.8950 H   0  0  0  0  0  0  0  0  0  0  0  0
  -15.6677  -22.7664   23.4439 H   0  0  0  0  0  0  0  0  0  0  0  0
  -18.3002  -23.2772   23.2154 H   0  0  0  0  0  0  0  0  0  0  0  0
  -15.8730  -25.6651   24.8666 H   0  0  0  0  0  0  0  0  0  0  0  0
  -15.6852  -25.9269   27.2536 H   0  0  0  0  0  0  0  0  0  0  0  0
  -18.6842  -22.8710   27.7776 H   0  0  0  0  0  0  0  0  0  0  0  0
  -18.3394  -23.5954   32.1069 H   0  0  0  0  0  0  0  0  0  0  0  0
  -18.2002  -25.2492   31.4740 H   0  0  0  0  0  0  0  0  0  0  0  0
  -15.3824  -23.3318   29.6271 H   0  0  0  0  0  0  0  0  0  0  0  0
  -14.8857  -24.8584   28.9282 H   0  0  0  0  0  0  0  0  0  0  0  0
  -14.5610  -23.7544   20.7290 H   0  0  0  0  0  0  0  0  0  0  0  0
  -10.8886  -27.1700   22.6339 H   0  0  0  0  0  0  0  0  0  0  0  0
  -11.3467  -28.7939   20.8512 H   0  0  0  0  0  0  0  0  0  0  0  0
  -13.1996  -28.3998   19.2733 H   0  0  0  0  0  0  0  0  0  0  0  0
  -11.3034  -24.3837   23.1901 H   0  0  0  0  0  0  0  0  0  0  0  0
  -12.7576  -24.9569   24.0114 H   0  0  0  0  0  0  0  0  0  0  0  0
  -13.5135  -22.8402   23.0530 H   0  0  0  0  0  0  0  0  0  0  0  0
  -12.5187  -23.0701   21.6352 H   0  0  0  0  0  0  0  0  0  0  0  0
  -16.1968  -26.4207   21.4990 H   0  0  0  0  0  0  0  0  0  0  0  0
  -16.7216  -24.9734   20.7149 H   0  0  0  0  0  0  0  0  0  0  0  0
  -17.6431  -26.2104   23.3344 H   0  0  0  0  0  0  0  0  0  0  0  0
  -19.1462  -24.6052   21.4768 H   0  0  0  0  0  0  0  0  0  0  0  0
  -20.1500  -26.5641   20.6932 H   0  0  0  0  0  0  0  0  0  0  0  0
  -18.4411  -26.3898   20.2575 H   0  0  0  0  0  0  0  0  0  0  0  0
  -18.9288  -27.4745   21.6050 H   0  0  0  0  0  0  0  0  0  0  0  0
  -21.0404  -25.7022   22.5162 H   0  0  0  0  0  0  0  0  0  0  0  0
  -19.8946  -26.2525   23.7561 H   0  0  0  0  0  0  0  0  0  0  0  0
  -20.1768  -24.4944   23.4998 H   0  0  0  0  0  0  0  0  0  0  0  0
  -18.8873  -22.6837   25.3959 H   0  0  0  0  0  0  0  0  0  0  0  0
  -15.7130  -26.0611   30.9280 H   0  0  0  0  0  0  0  0  0  0  0  0
  -14.4257  -24.9146   31.2604 H   0  0  0  0  0  0  0  0  0  0  0  0
  -13.9067  -24.4823   34.2905 H   0  0  0  0  0  0  0  0  0  0  0  0
  -13.7722  -23.7921   32.6905 H   0  0  0  0  0  0  0  0  0  0  0  0
  -14.1409  -22.7442   34.0576 H   0  0  0  0  0  0  0  0  0  0  0  0
  -17.4169  -22.7036   30.0031 H   0  0  0  0  0  0  0  0  0  0  0  0
  -18.8644  -23.7106   29.7115 H   0  0  0  0  0  0  0  0  0  0  0  0
  1  3  1  0
  1 11  1  0
  1 21  1  0
  2  9  1  0
  2 29  1  0
  2 30  1  0
  3  4  1  0
  3 35  1  0
  3 36  1  0
  4  5  1  0
  4 22  1  0
  4 37  1  1
  5  6  2  0
  5 26  1  0
  6  7  1  0
  6 38  1  0
  7 27  2  0
  7 39  1  0
  8 26  2  0
  8 27  1  0
  8 40  1  0
  9 34  1  0
  9 41  1  0
  9 42  1  0
 10 28  1  0
 10 29  1  0
 10 43  1  0
 10 44  1  0
 11 18  1  0
 11 20  1  0
 11 45  1  6
 12 13  2  0
 12 18  1  0
 12 19  1  0
 13 14  1  0
 13 46  1  0
 14 17  2  0
 14 47  1  0
 15 16  1  0
 15 17  1  0
 15 18  2  0
 17 48  1  0
 19 20  1  0
 19 49  1  0
 19 50  1  0
 20 51  1  0
 20 52  1  0
 21 22  1  0
 21 53  1  0
 21 54  1  0
 22 23  1  0
 22 55  1  1
 23 24  1  0
 23 25  1  0
 23 56  1  0
 24 57  1  0
 24 58  1  0
 24 59  1  0
 25 60  1  0
 25 61  1  0
 25 62  1  0
 26 63  1  0
 27 28  1  0
 28 34  1  0
 29 64  1  0
 29 65  1  0
 30 31  2  0
 30 32  1  0
 30 33  2  0
 32 66  1  0
 32 67  1  0
 32 68  1  0
 34 69  1  0
 34 70  1  0
M  CHG  1  23   1
M  END
$$$$
