JAK_ref
     RDKit          3D

 37 40  0  0  1  0  0  0  0  0999 V2000
   12.7510    4.2250  -44.4080 C   0  0  0  0  0  0  0  0  0  0  0  0
   13.8390    3.1900  -44.2360 C   0  0  0  0  0  0  0  0  0  0  0  0
   13.7510    1.9570  -44.6390 N   0  0  0  0  0  0  0  0  0  0  0  0
   14.8820    1.2890  -44.3340 C   0  0  0  0  0  0  0  0  0  0  0  0
   15.2920   -0.0320  -44.5490 C   0  0  0  0  0  0  0  0  0  0  0  0
   16.4800   -0.4390  -44.1370 N   0  0  0  0  0  0  0  0  0  0  0  0
   17.3390    0.3780  -43.5130 C   0  0  0  0  0  0  0  0  0  0  0  0
   16.9960    1.7220  -43.2550 C   0  0  0  0  0  0  0  0  0  0  0  0
   15.7420    2.2060  -43.6720 C   0  0  0  0  0  0  0  0  0  0  0  0
   15.0440    3.4060  -43.6230 N   0  0  0  0  0  0  0  0  0  0  0  0
   15.4150    4.7080  -43.0380 C   0  0  0  0  0  0  0  0  0  0  0  0
   15.5610    4.5750  -41.5180 C   0  0  0  0  0  0  0  0  0  0  0  0
   15.8800    5.9420  -40.9060 C   0  0  0  0  0  0  0  0  0  0  0  0
   17.0930    6.4980  -41.5210 N   0  0  0  0  0  0  0  0  0  0  0  0
   16.8890    6.6800  -42.9620 C   0  0  0  0  0  0  0  0  0  0  0  0
   16.7000    5.3050  -43.6150 C   0  0  0  0  0  0  0  0  0  0  0  0
   18.1580    2.3030  -42.5640 C   0  0  0  0  0  0  0  0  0  0  0  0
   19.0790    1.3300  -42.4390 C   0  0  0  0  0  0  0  0  0  0  0  0
   18.6000    0.1740  -43.0040 N   0  0  0  0  0  0  0  0  0  0  0  0
   13.0396    5.2544  -44.4875 H   0  0  0  0  0  0  0  0  0  0  0  0
   12.1170    4.0086  -45.2674 H   0  0  0  0  0  0  0  0  0  0  0  0
   12.1044    4.1955  -43.5344 H   0  0  0  0  0  0  0  0  0  0  0  0
   14.6732   -0.7340  -45.0796 H   0  0  0  0  0  0  0  0  0  0  0  0
   14.6121    5.3928  -43.2574 H   0  0  0  0  0  0  0  0  0  0  0  0
   16.2810    3.8146  -41.2173 H   0  0  0  0  0  0  0  0  0  0  0  0
   14.5992    4.2781  -41.0963 H   0  0  0  0  0  0  0  0  0  0  0  0
   16.1140    5.8476  -39.8462 H   0  0  0  0  0  0  0  0  0  0  0  0
   15.0895    6.6809  -41.0180 H   0  0  0  0  0  0  0  0  0  0  0  0
   17.8908    5.8908  -41.3570 H   0  0  0  0  0  0  0  0  0  0  0  0
   17.3034    7.3923  -41.0924 H   0  0  0  0  0  0  0  0  0  0  0  0
   17.7838    7.1872  -43.3157 H   0  0  0  0  0  0  0  0  0  0  0  0
   16.0423    7.3539  -43.1073 H   0  0  0  0  0  0  0  0  0  0  0  0
   16.5563    5.5547  -44.6589 H   0  0  0  0  0  0  0  0  0  0  0  0
   17.5782    4.6718  -43.5696 H   0  0  0  0  0  0  0  0  0  0  0  0
   18.2840    3.2975  -42.1803 H   0  0  0  0  0  0  0  0  0  0  0  0
   20.0535    1.3322  -41.9790 H   0  0  0  0  0  0  0  0  0  0  0  0
   19.1345   -0.6860  -43.0219 H   0  0  0  0  0  0  0  0  0  0  0  0
  1  2  1  0
  1 20  1  0
  1 21  1  0
  1 22  1  0
  2  3  2  0
  2 10  1  0
  3  4  1  0
  4  5  1  0
  4  9  2  0
  5  6  2  0
  5 23  1  0
  6  7  1  0
  7  8  2  0
  7 19  1  0
  8  9  1  0
  8 17  1  0
  9 10  1  0
 10 11  1  0
 11 12  1  0
 11 16  1  0
 11 24  1  0
 12 13  1  0
 12 25  1  0
 12 26  1  0
 13 14  1  0
 13 27  1  0
 13 28  1  0
 14 15  1  0
 14 29  1  0
 14 30  1  0
 15 16  1  0
 15 31  1  0
 15 32  1  0
 16 33  1  0
 16 34  1  0
 17 18  2  0
 17 35  1  0
 18 19  1  0
 18 36  1  0
 19 37  1  0
M  CHG  1  14   1
M  END
$$$$
