HK9_ref
     RDKit          3D

 42 45  0  0  1  0  0  0  0  0999 V2000
   16.5680   -1.8520    9.0780 O   0  0  0  0  0  0  0  0  0  0  0  0
   17.2080   -2.8960    9.3490 C   0  0  0  0  0  0  0  0  0  0  0  0
   18.5380   -2.8700    8.9280 N   0  0  0  0  0  0  0  0  0  0  0  0
   19.6230   -3.7110    9.1840 C   0  0  0  0  0  0  0  0  0  0  0  0
   20.7650   -3.5050    8.3400 C   0  0  0  0  0  0  0  0  0  0  0  0
   21.8820   -4.3230    8.4040 C   0  0  0  0  0  0  0  0  0  0  0  0
   21.9110   -5.3800    9.3110 C   0  0  0  0  0  0  0  0  0  0  0  0
   20.8270   -5.5980   10.1560 C   0  0  0  0  0  0  0  0  0  0  0  0
   19.6540   -4.7650   10.1160 C   0  0  0  0  0  0  0  0  0  0  0  0
   18.6050   -5.1890   10.9320 N   0  0  0  0  0  0  0  0  0  0  0  0
   16.6030   -4.0270   10.0300 C   0  0  0  0  0  0  0  0  0  0  0  0
   17.2370   -4.9310   10.8830 C   0  0  0  0  0  0  0  0  0  0  0  0
   16.4530   -5.8450   11.6300 C   0  0  0  0  0  0  0  0  0  0  0  0
   15.2000   -4.1380    9.8570 C   0  0  0  0  0  0  0  0  0  0  0  0
   14.4550   -5.0510   10.5430 C   0  0  0  0  0  0  0  0  0  0  0  0
   15.0690   -5.9170   11.4840 C   0  0  0  0  0  0  0  0  0  0  0  0
   14.2520   -6.8290   12.3080 C   0  0  0  0  0  0  0  0  0  0  0  0
   12.9780   -6.4170   12.7410 C   0  0  0  0  0  0  0  0  0  0  0  0
   14.7180   -8.1290   12.6730 C   0  0  0  0  0  0  0  0  0  0  0  0
   13.9190   -8.9750   13.4450 C   0  0  0  0  0  0  0  0  0  0  0  0
   12.6360   -8.5650   13.8870 C   0  0  0  0  0  0  0  0  0  0  0  0
   11.8740   -9.5030   14.8080 C   0  0  0  0  0  0  0  0  0  0  0  0
   12.5500  -10.0790   15.6850 O   0  0  0  0  0  0  0  0  0  0  0  0
   10.6540   -9.6070   14.6230 O   0  0  0  0  0  0  0  0  0  0  0  0
   12.1610   -7.2860   13.5130 C   0  0  0  0  0  0  0  0  0  0  0  0
   10.8700   -6.8920   13.8960 O   0  0  0  0  0  0  0  0  0  0  0  0
   10.2970   -5.7400   13.2960 C   0  0  0  0  0  0  0  0  0  0  0  0
   18.7719   -2.0320    8.4126 H   0  0  0  0  0  0  0  0  0  0  0  0
   20.7599   -2.7042    7.6136 H   0  0  0  0  0  0  0  0  0  0  0  0
   22.7219   -4.1455    7.7486 H   0  0  0  0  0  0  0  0  0  0  0  0
   22.7743   -6.0271    9.3613 H   0  0  0  0  0  0  0  0  0  0  0  0
   20.8681   -6.4338   10.8410 H   0  0  0  0  0  0  0  0  0  0  0  0
   18.8494   -5.9578   11.5413 H   0  0  0  0  0  0  0  0  0  0  0  0
   16.9457   -6.5312   12.3045 H   0  0  0  0  0  0  0  0  0  0  0  0
   14.6688   -3.4902    9.1745 H   0  0  0  0  0  0  0  0  0  0  0  0
   13.3851   -5.0580   10.3950 H   0  0  0  0  0  0  0  0  0  0  0  0
   12.6359   -5.4295   12.4804 H   0  0  0  0  0  0  0  0  0  0  0  0
   15.6955   -8.4628   12.3644 H   0  0  0  0  0  0  0  0  0  0  0  0
   14.3148   -9.9452   13.7120 H   0  0  0  0  0  0  0  0  0  0  0  0
    9.2381   -5.6936   13.5402 H   0  0  0  0  0  0  0  0  0  0  0  0
   10.7651   -4.8420   13.6960 H   0  0  0  0  0  0  0  0  0  0  0  0
   10.3863   -5.7328   12.2087 H   0  0  0  0  0  0  0  0  0  0  0  0
  1  2  2  0
  2  3  1  0
  2 11  1  0
  3  4  1  0
  3 28  1  0
  4  5  2  0
  4  9  1  0
  5  6  1  0
  5 29  1  0
  6  7  2  0
  6 30  1  0
  7  8  1  0
  7 31  1  0
  8  9  2  0
  8 32  1  0
  9 10  1  0
 10 12  1  0
 10 33  1  0
 11 12  2  0
 11 14  1  0
 12 13  1  0
 13 16  2  0
 13 34  1  0
 14 15  2  0
 14 35  1  0
 15 16  1  0
 15 36  1  0
 16 17  1  0
 17 18  2  0
 17 19  1  0
 18 25  1  0
 18 37  1  0
 19 20  2  0
 19 38  1  0
 20 21  1  0
 20 39  1  0
 21 22  1  0
 21 25  2  0
 22 23  1  0
 22 24  2  0
 25 26  1  0
 26 27  1  0
 27 40  1  0
 27 41  1  0
 27 42  1  0
M  CHG  1  23  -1
M  END
$$$$
