27U_ref
     RDKit          3D

 55 57  0  0  1  0  0  0  0  0999 V2000
   17.7780  -13.9760   22.7110 C   0  0  0  0  0  0  0  0  0  0  0  0
   16.8790  -13.2430   23.0840 O   0  0  0  0  0  0  0  0  0  0  0  0
   17.8640  -15.3540   23.3240 C   0  0  0  0  0  0  0  0  0  0  0  0
   18.1770  -15.3070   24.8340 C   0  0  0  0  0  0  0  0  0  0  0  0
   19.5850  -14.7420   25.0780 C   0  0  0  0  0  0  0  0  0  0  0  0
   20.7160  -15.4040   24.5840 C   0  0  0  0  0  0  0  0  0  0  0  0
   21.9930  -14.8350   24.6660 C   0  0  0  0  0  0  0  0  0  0  0  0
   22.1550  -13.5830   25.2510 C   0  0  0  0  0  0  0  0  0  0  0  0
   21.0310  -12.9140   25.7480 C   0  0  0  0  0  0  0  0  0  0  0  0
   19.7560  -13.4810   25.6650 C   0  0  0  0  0  0  0  0  0  0  0  0
   18.6700  -13.5220   21.7990 N   0  0  0  0  0  0  0  0  0  0  0  0
   18.5050  -12.1810   21.2430 C   0  0  2  0  0  0  0  0  0  0  0  0
   17.1590  -12.0950   20.5470 C   0  0  0  0  0  0  0  0  0  0  0  0
   16.7380  -13.1240   20.0330 O   0  0  0  0  0  0  0  0  0  0  0  0
   19.6440  -12.2190   20.1880 C   0  0  0  0  0  0  0  0  0  0  0  0
   20.7410  -13.0170   20.9440 C   0  0  0  0  0  0  0  0  0  0  0  0
   19.9360  -14.2030   21.5350 C   0  0  0  0  0  0  0  0  0  0  0  0
   16.3970  -10.9920   20.6960 N   0  0  0  0  0  0  0  0  0  0  0  0
   15.1090  -10.9130   19.9790 C   0  0  0  0  0  0  0  0  0  0  0  0
   13.9910  -10.8870   21.0340 C   0  0  0  0  0  0  0  0  0  0  0  0
   13.5430   -9.6820   21.5670 C   0  0  0  0  0  0  0  0  0  0  0  0
   12.5240   -9.6460   22.5280 C   0  0  0  0  0  0  0  0  0  0  0  0
   11.9390  -10.8380   22.9690 C   0  0  0  0  0  0  0  0  0  0  0  0
   10.8370  -10.7980   24.0120 C   0  0  0  0  0  0  0  0  0  0  0  0
   10.5480   -9.6490   24.5580 N   0  0  0  0  0  0  0  0  0  0  0  0
   10.1950  -11.8850   24.3550 N   0  0  0  0  0  0  0  0  0  0  0  0
   12.3890  -12.0470   22.4310 C   0  0  0  0  0  0  0  0  0  0  0  0
   13.4050  -12.0770   21.4740 C   0  0  0  0  0  0  0  0  0  0  0  0
   18.5712  -15.9928   22.7957 H   0  0  0  0  0  0  0  0  0  0  0  0
   16.8945  -15.8333   23.1812 H   0  0  0  0  0  0  0  0  0  0  0  0
   18.1394  -16.3149   25.2494 H   0  0  0  0  0  0  0  0  0  0  0  0
   17.4226  -14.7375   25.3814 H   0  0  0  0  0  0  0  0  0  0  0  0
   20.6060  -16.3671   24.1069 H   0  0  0  0  0  0  0  0  0  0  0  0
   22.8483  -15.3611   24.2682 H   0  0  0  0  0  0  0  0  0  0  0  0
   23.1328  -13.1286   25.3064 H   0  0  0  0  0  0  0  0  0  0  0  0
   21.1453  -11.9375   26.1951 H   0  0  0  0  0  0  0  0  0  0  0  0
   18.9038  -12.9333   26.0144 H   0  0  0  0  0  0  0  0  0  0  0  0
   18.6430  -11.4127   22.0033 H   0  0  0  0  0  0  0  0  0  0  0  0
   19.9852  -11.2232   19.9062 H   0  0  0  0  0  0  0  0  0  0  0  0
   19.3523  -12.7471   19.2780 H   0  0  0  0  0  0  0  0  0  0  0  0
   21.1878  -12.4250   21.7395 H   0  0  0  0  0  0  0  0  0  0  0  0
   21.5117  -13.3364   20.2607 H   0  0  0  0  0  0  0  0  0  0  0  0
   19.7784  -14.9831   20.7896 H   0  0  0  0  0  0  0  0  0  0  0  0
   20.4622  -14.6221   22.3682 H   0  0  0  0  0  0  0  0  0  0  0  0
   16.7228  -10.1862   21.2164 H   0  0  0  0  0  0  0  0  0  0  0  0
   14.9178  -11.6620   19.2065 H   0  0  0  0  0  0  0  0  0  0  0  0
   15.0466   -9.9632   19.5391 H   0  0  0  0  0  0  0  0  0  0  0  0
   13.9965   -8.7611   21.2360 H   0  0  0  0  0  0  0  0  0  0  0  0
   12.2207   -8.6728   22.8695 H   0  0  0  0  0  0  0  0  0  0  0  0
    9.6982   -9.5776   25.1150 H   0  0  0  0  0  0  0  0  0  0  0  0
   11.0853   -8.8191   24.3395 H   0  0  0  0  0  0  0  0  0  0  0  0
    9.3701  -11.7969   24.9464 H   0  0  0  0  0  0  0  0  0  0  0  0
   10.4362  -12.7772   23.9476 H   0  0  0  0  0  0  0  0  0  0  0  0
   11.9763  -12.9968   22.7398 H   0  0  0  0  0  0  0  0  0  0  0  0
   13.7403  -13.0258   21.0796 H   0  0  0  0  0  0  0  0  0  0  0  0
  1  2  2  0
  1  3  1  0
  1 11  1  0
  3  4  1  0
  3 29  1  0
  3 30  1  0
  4  5  1  0
  4 31  1  0
  4 32  1  0
  5  6  2  0
  5 10  1  0
  6  7  1  0
  6 33  1  0
  7  8  2  0
  7 34  1  0
  8  9  1  0
  8 35  1  0
  9 10  2  0
  9 36  1  0
 10 37  1  0
 11 12  1  0
 11 17  1  0
 12 13  1  0
 12 15  1  0
 12 38  1  1
 13 14  2  0
 13 18  1  0
 15 16  1  0
 15 39  1  0
 15 40  1  0
 16 17  1  0
 16 41  1  0
 16 42  1  0
 17 43  1  0
 17 44  1  0
 18 19  1  0
 18 45  1  0
 19 20  1  0
 19 46  1  0
 19 47  1  0
 20 21  2  0
 20 28  1  0
 21 22  1  0
 21 48  1  0
 22 23  2  0
 22 49  1  0
 23 24  1  0
 23 27  1  0
 24 25  2  0
 24 26  1  0
 25 50  1  0
 25 51  1  0
 26 52  1  0
 26 53  1  0
 27 28  2  0
 27 54  1  0
 28 55  1  0
M  CHG  1  25   1
M  END
$$$$
