A1A_ref
     RDKit          3D

 51 54  0  0  1  0  0  0  0  0999 V2000
  184.0280  137.8120  180.2310 C   0  0  0  0  0  0  0  0  0  0  0  0
  184.2460  139.1390  179.8530 C   0  0  0  0  0  0  0  0  0  0  0  0
  188.0130  139.4750  179.9400 C   0  0  0  0  0  0  0  0  0  0  0  0
  188.0840  139.8340  178.5010 C   0  0  0  0  0  0  0  0  0  0  0  0
  189.2650  139.0100  180.5270 C   0  0  0  0  0  0  0  0  0  0  0  0
  190.5220  139.0720  179.9150 C   0  0  0  0  0  0  0  0  0  0  0  0
  191.6730  138.6050  180.5140 C   0  0  0  0  0  0  0  0  0  0  0  0
  191.6400  138.0430  181.7960 C   0  0  0  0  0  0  0  0  0  0  0  0
  192.6530  134.2180  181.1920 C   0  0  0  0  0  0  0  0  0  0  0  0
  193.9280  133.6840  181.3890 C   0  0  0  0  0  0  0  0  0  0  0  0
  194.8970  134.5120  181.9310 C   0  0  0  0  0  0  0  0  0  0  0  0
  194.5510  135.8330  182.2500 C   0  0  0  0  0  0  0  0  0  0  0  0
  190.4200  137.9550  182.4570 C   0  0  0  0  0  0  0  0  0  0  0  0
  189.2650  138.4450  181.7960 C   0  0  0  0  0  0  0  0  0  0  0  0
  178.6040  137.8890  175.6030 C   0  0  0  0  0  0  0  0  0  0  0  0
  182.0070  139.0310  178.7930 C   0  0  0  0  0  0  0  0  0  0  0  0
  182.8290  137.1670  179.8810 C   0  0  0  0  0  0  0  0  0  0  0  0
  185.5130  139.8900  180.2180 C   0  0  0  0  0  0  0  0  0  0  0  0
  186.8220  139.2000  180.5300 C   0  0  0  0  0  0  0  0  0  0  0  0
  193.2330  136.3030  182.0210 C   0  0  0  0  0  0  0  0  0  0  0  0
  186.9130  138.6710  181.8850 C   0  0  0  0  0  0  0  0  0  0  0  0
  183.1980  139.7220  179.1260 C   0  0  0  0  0  0  0  0  0  0  0  0
  195.4930  136.6110  182.7670 F   0  0  0  0  0  0  0  0  0  0  0  0
  183.3200  140.9770  178.7290 F   0  0  0  0  0  0  0  0  0  0  0  0
  179.3610  137.8360  176.8710 N   0  0  0  0  0  0  0  0  0  0  0  0
  180.9510  139.6090  178.0490 N   0  0  0  0  0  0  0  0  0  0  0  0
  181.8310  137.7330  179.1720 N   0  0  0  0  0  0  0  0  0  0  0  0
  192.2920  135.4840  181.4870 N   0  0  0  0  0  0  0  0  0  0  0  0
  178.9750  138.4850  179.2010 O   0  0  0  0  0  0  0  0  0  0  0  0
  178.6140  140.1410  177.4300 O   0  0  0  0  0  0  0  0  0  0  0  0
  192.8490  137.5980  182.3190 O   0  0  0  0  0  0  0  0  0  0  0  0
  188.1110  138.3390  182.4800 O   0  0  0  0  0  0  0  0  0  0  0  0
  185.9860  138.4920  182.6470 O   0  0  0  0  0  0  0  0  0  0  0  0
  179.3580  139.0830  177.9780 S   0  0  0  0  0  0  0  0  0  0  0  0
  184.8011  137.2531  180.7221 H   0  0  0  0  0  0  0  0  0  0  0  0
  187.1108  139.8454  178.0108 H   0  0  0  0  0  0  0  0  0  0  0  0
  188.5265  140.8233  178.3830 H   0  0  0  0  0  0  0  0  0  0  0  0
  188.6811  139.1204  177.9346 H   0  0  0  0  0  0  0  0  0  0  0  0
  190.6273  139.5173  178.9379 H   0  0  0  0  0  0  0  0  0  0  0  0
  192.6124  138.6791  179.9856 H   0  0  0  0  0  0  0  0  0  0  0  0
  191.8696  133.5914  180.7991 H   0  0  0  0  0  0  0  0  0  0  0  0
  194.1524  132.6579  181.1348 H   0  0  0  0  0  0  0  0  0  0  0  0
  195.8993  134.1452  182.1014 H   0  0  0  0  0  0  0  0  0  0  0  0
  190.3627  137.5209  183.4436 H   0  0  0  0  0  0  0  0  0  0  0  0
  179.1202  137.2904  174.8526 H   0  0  0  0  0  0  0  0  0  0  0  0
  177.6199  137.4531  175.7519 H   0  0  0  0  0  0  0  0  0  0  0  0
  178.4975  138.9149  175.2506 H   0  0  0  0  0  0  0  0  0  0  0  0
  182.7210  136.1545  180.1967 H   0  0  0  0  0  0  0  0  0  0  0  0
  185.2141  140.4927  181.0732 H   0  0  0  0  0  0  0  0  0  0  0  0
  185.6887  140.6353  179.4451 H   0  0  0  0  0  0  0  0  0  0  0  0
  180.3133  137.4916  176.7110 H   0  0  0  0  0  0  0  0  0  0  0  0
  1  2  2  0
  1 17  1  0
  1 35  1  0
  2 18  1  0
  2 22  1  0
  3  4  1  0
  3  5  1  0
  3 19  2  0
  4 36  1  0
  4 37  1  0
  4 38  1  0
  5  6  2  0
  5 14  1  0
  6  7  1  0
  6 39  1  0
  7  8  2  0
  7 40  1  0
  8 13  1  0
  8 31  1  0
  9 10  2  0
  9 28  1  0
  9 41  1  0
 10 11  1  0
 10 42  1  0
 11 12  2  0
 11 43  1  0
 12 20  1  0
 12 23  1  0
 13 14  2  0
 13 44  1  0
 14 32  1  0
 15 25  1  0
 15 45  1  0
 15 46  1  0
 15 47  1  0
 16 22  2  0
 16 26  1  0
 16 27  1  0
 17 27  2  0
 17 48  1  0
 18 19  1  0
 18 49  1  0
 18 50  1  0
 19 21  1  0
 20 28  2  0
 20 31  1  0
 21 32  1  0
 21 33  2  0
 22 24  1  0
 25 34  1  0
 25 51  1  0
 26 34  1  0
 29 34  2  0
 30 34  2  0
M  CHG  1  26  -1
M  END
$$$$
