6
 OpenBabel11302214433D

 28 30  0  0  0  0  0  0  0  0999 V2000
   45.7580   41.1910   59.5900 C   0  0  0  0  0  0  0  0  0  0  0  0
   45.2300   41.2120   58.2840 C   0  0  0  0  0  0  0  0  0  0  0  0
   44.7250   39.9940   57.7710 C   0  0  0  0  0  0  0  0  0  0  0  0
   44.2570   39.9090   56.4340 N   0  0  0  0  0  0  0  0  0  0  0  0
   44.3550   40.9540   55.5740 N   0  0  0  0  0  0  0  0  0  0  0  0
   43.8590   40.5060   54.4310 C   0  0  0  0  0  0  0  0  0  0  0  0
   43.4160   39.1610   54.5240 C   0  0  0  0  0  0  0  0  0  0  0  0
   43.6910   38.8110   55.8130 C   0  0  0  0  0  0  0  0  0  0  0  0
   44.7150   38.8800   58.5310 N   0  0  0  0  0  0  0  0  0  0  0  0
   45.2140   38.9760   59.7600 C   0  0  0  0  0  0  0  0  0  0  0  0
   45.7520   40.0550   60.3140 N   0  0  0  0  0  0  0  0  0  0  0  0
   47.9570   43.3930   61.7920 C   0  0  0  0  0  0  0  0  0  0  0  0
   47.3740   44.6590   61.5840 C   0  0  0  0  0  0  0  0  0  0  0  0
   46.2700   44.7930   60.7230 C   0  0  0  0  0  0  0  0  0  0  0  0
   45.7490   43.6620   60.0670 C   0  0  0  0  0  0  0  0  0  0  0  0
   46.3200   42.3820   60.2590 C   0  0  0  0  0  0  0  0  0  0  0  0
   47.4340   42.2670   61.1250 C   0  0  0  0  0  0  0  0  0  0  0  0
   45.7030   46.0090   60.5290 F   0  0  0  0  0  0  0  0  0  0  0  0
   49.9850   43.1320   63.4180 N   0  0  0  0  0  0  0  0  0  0  0  0
   49.0870   43.2480   62.6970 C   0  0  0  0  0  0  0  0  0  0  0  0
   45.2123   42.0793   57.7250 H   0  0  0  0  0  0  0  0  0  0  0  0
   43.8011   41.0713   53.5695 H   0  0  0  0  0  0  0  0  0  0  0  0
   42.9853   38.5816   53.7865 H   0  0  0  0  0  0  0  0  0  0  0  0
   43.5094   37.8923   56.2467 H   0  0  0  0  0  0  0  0  0  0  0  0
   45.1792   38.1246   60.3421 H   0  0  0  0  0  0  0  0  0  0  0  0
   47.7574   45.4884   62.0638 H   0  0  0  0  0  0  0  0  0  0  0  0
   44.9387   43.7680   59.4368 H   0  0  0  0  0  0  0  0  0  0  0  0
   47.8704   41.3432   61.2703 H   0  0  0  0  0  0  0  0  0  0  0  0
  1 16  1  0  0  0  0
  1 11  1  0  0  0  0
  2  1  2  0  0  0  0
  2 21  1  0  0  0  0
  3  2  1  0  0  0  0
  3  9  2  0  0  0  0
  4  3  1  0  0  0  0
  5  4  1  0  0  0  0
  6  7  1  0  0  0  0
  6  5  2  0  0  0  0
  6 22  1  0  0  0  0
  7  8  2  0  0  0  0
  7 23  1  0  0  0  0
  8  4  1  0  0  0  0
  8 24  1  0  0  0  0
  9 10  1  0  0  0  0
 10 11  2  0  0  0  0
 10 25  1  0  0  0  0
 12 20  1  0  0  0  0
 13 12  1  0  0  0  0
 13 26  1  0  0  0  0
 14 13  2  0  0  0  0
 15 16  2  0  0  0  0
 15 14  1  0  0  0  0
 15 27  1  0  0  0  0
 16 17  1  0  0  0  0
 17 12  2  0  0  0  0
 17 28  1  0  0  0  0
 18 14  1  0  0  0  0
 20 19  3  0  0  0  0
M  END
$$$$
