0X5_ref
     RDKit          3D

 36 38  0  0  1  0  0  0  0  0999 V2000
   11.9250  -22.7630    4.8800 C   0  0  0  0  0  0  0  0  0  0  0  0
   11.7070  -21.9000    3.7930 C   0  0  0  0  0  0  0  0  0  0  0  0
   12.2370  -20.6260    3.8140 C   0  0  0  0  0  0  0  0  0  0  0  0
    9.3480  -25.5150    5.1040 C   0  0  0  0  0  0  0  0  0  0  0  0
   11.3780  -24.1440    4.9180 C   0  0  0  0  0  0  0  0  0  0  0  0
    9.9140  -26.7900    5.1580 C   0  0  0  0  0  0  0  0  0  0  0  0
    9.1120  -27.9070    5.2740 C   0  0  0  0  0  0  0  0  0  0  0  0
   12.6700  -22.2890    5.9710 C   0  0  0  0  0  0  0  0  0  0  0  0
   12.9740  -20.1800    4.8910 C   0  0  0  0  0  0  0  0  0  0  0  0
   13.1910  -21.0120    5.9690 C   0  0  0  0  0  0  0  0  0  0  0  0
   10.7840  -22.3710    2.4030 Cl  0  0  0  0  0  0  0  0  0  0  0  0
   12.1390  -25.0940    4.8570 O   0  0  0  0  0  0  0  0  0  0  0  0
   10.0460  -24.3040    5.0250 N   0  0  0  0  0  0  0  0  0  0  0  0
    7.7960  -27.7790    5.3270 N   0  0  0  0  0  0  0  0  0  0  0  0
    7.2090  -26.5890    5.2760 C   0  0  0  0  0  0  0  0  0  0  0  0
    7.9720  -25.4420    5.1870 C   0  0  0  0  0  0  0  0  0  0  0  0
    5.8170  -26.4890    5.3460 N   0  0  0  0  0  0  0  0  0  0  0  0
    5.1060  -25.4200    4.8970 C   0  0  0  0  0  0  0  0  0  0  0  0
    5.5920  -24.4300    4.3790 O   0  0  0  0  0  0  0  0  0  0  0  0
    3.6150  -25.4250    5.0160 C   0  0  0  0  0  0  0  0  0  0  0  0
    2.9590  -24.0660    5.2620 C   0  0  0  0  0  0  0  0  0  0  0  0
    2.8970  -24.7110    3.8800 C   0  0  0  0  0  0  0  0  0  0  0  0
   12.9570  -23.2980    7.3520 Cl  0  0  0  0  0  0  0  0  0  0  0  0
   12.0315  -19.9494    2.9993 H   0  0  0  0  0  0  0  0  0  0  0  0
   10.9699  -26.9915    5.1314 H   0  0  0  0  0  0  0  0  0  0  0  0
    9.5299  -28.8981    5.3227 H   0  0  0  0  0  0  0  0  0  0  0  0
   13.3692  -19.1744    4.8995 H   0  0  0  0  0  0  0  0  0  0  0  0
   13.7629  -20.6597    6.8132 H   0  0  0  0  0  0  0  0  0  0  0  0
    9.4820  -23.4632    5.0723 H   0  0  0  0  0  0  0  0  0  0  0  0
    7.5877  -24.4423    5.2776 H   0  0  0  0  0  0  0  0  0  0  0  0
    5.3126  -27.2785    5.7264 H   0  0  0  0  0  0  0  0  0  0  0  0
    3.1654  -26.3174    5.4483 H   0  0  0  0  0  0  0  0  0  0  0  0
    3.5658  -23.1699    5.3975 H   0  0  0  0  0  0  0  0  0  0  0  0
    2.0587  -24.0412    5.8768 H   0  0  0  0  0  0  0  0  0  0  0  0
    1.9526  -25.1310    3.5331 H   0  0  0  0  0  0  0  0  0  0  0  0
    3.4315  -24.2005    3.0786 H   0  0  0  0  0  0  0  0  0  0  0  0
  1  2  2  0
  1  5  1  0
  1  8  1  0
  2  3  1  0
  2 11  1  0
  3  9  2  0
  3 24  1  0
  4  6  2  0
  4 13  1  0
  4 16  1  0
  5 12  2  0
  5 13  1  0
  6  7  1  0
  6 25  1  0
  7 14  2  0
  7 26  1  0
  8 10  2  0
  8 23  1  0
  9 10  1  0
  9 27  1  0
 10 28  1  0
 13 29  1  0
 14 15  1  0
 15 16  2  0
 15 17  1  0
 16 30  1  0
 17 18  1  0
 17 31  1  0
 18 19  2  0
 18 20  1  0
 20 21  1  0
 20 22  1  0
 20 32  1  0
 21 22  1  0
 21 33  1  0
 21 34  1  0
 22 35  1  0
 22 36  1  0
M  END
$$$$
