KRE_ref
     RDKit          3D

 60 63  0  0  1  0  0  0  0  0999 V2000
  -37.2810  -28.3020  -22.1760 C   0  0  0  0  0  0  0  0  0  0  0  0
  -38.6430  -25.8580  -29.9800 C   0  0  0  0  0  0  0  0  0  0  0  0
  -41.4940  -33.4550  -24.3320 O   0  0  0  0  0  0  0  0  0  0  0  0
  -39.3600  -29.5520  -24.0410 C   0  0  0  0  0  0  0  0  0  0  0  0
  -38.8150  -28.2640  -23.9510 C   0  0  0  0  0  0  0  0  0  0  0  0
  -38.6290  -27.5090  -25.1080 C   0  0  0  0  0  0  0  0  0  0  0  0
  -39.9200  -27.1660  -28.4370 C   0  0  0  0  0  0  0  0  0  0  0  0
  -37.6140  -26.6190  -28.0540 C   0  0  0  0  0  0  0  0  0  0  0  0
  -38.8040  -27.2420  -27.6480 C   0  0  0  0  0  0  0  0  0  0  0  0
  -38.9810  -28.0510  -26.3460 C   0  0  0  0  0  0  0  0  0  0  0  0
  -39.5330  -29.3190  -26.4440 C   0  0  0  0  0  0  0  0  0  0  0  0
  -39.7180  -30.0810  -25.2930 C   0  0  0  0  0  0  0  0  0  0  0  0
  -42.9150  -31.1530  -24.3030 C   0  0  0  0  0  0  0  0  0  0  0  0
  -39.8480  -26.4650  -29.6170 C   0  0  0  0  0  0  0  0  0  0  0  0
  -41.1330  -26.4120  -30.4310 C   0  0  0  0  0  0  0  0  0  0  0  0
  -41.1840  -25.8760  -31.7120 C   0  0  0  0  0  0  0  0  0  0  0  0
  -42.4050  -25.8640  -32.3810 C   0  0  0  0  0  0  0  0  0  0  0  0
  -42.2700  -26.9120  -29.8210 C   0  0  0  0  0  0  0  0  0  0  0  0
  -43.4760  -26.9020  -30.4820 C   0  0  0  0  0  0  0  0  0  0  0  0
  -43.5410  -26.3740  -31.7640 C   0  0  0  0  0  0  0  0  0  0  0  0
  -45.0320  -25.4740  -33.6300 C   0  0  0  0  0  0  0  0  0  0  0  0
  -46.3340  -25.7330  -34.3880 C   0  0  0  0  0  0  0  0  0  0  0  0
  -47.3740  -26.4270  -32.4030 C   0  0  0  0  0  0  0  0  0  0  0  0
  -46.0710  -26.3120  -31.6060 C   0  0  0  0  0  0  0  0  0  0  0  0
  -36.4090  -26.6910  -27.2280 N   0  0  0  0  0  0  0  0  0  0  0  0
  -40.2900  -31.4150  -25.4270 N   0  0  0  0  0  0  0  0  0  0  0  0
  -37.5770  -25.9520  -29.1980 N   0  0  0  0  0  0  0  0  0  0  0  0
  -44.8390  -26.3700  -32.4510 N   0  0  0  0  0  0  0  0  0  0  0  0
  -47.1570  -26.7090  -33.7680 N   0  0  0  0  0  0  0  0  0  0  0  0
  -40.7140  -31.8870  -22.8690 O   0  0  0  0  0  0  0  0  0  0  0  0
  -38.4330  -27.7100  -22.7170 O   0  0  0  0  0  0  0  0  0  0  0  0
  -41.3210  -32.0100  -24.2050 S   0  0  0  0  0  0  0  0  0  0  0  0
  -36.9183  -27.6912  -21.3518 H   0  0  0  0  0  0  0  0  0  0  0  0
  -37.4903  -29.2986  -21.7851 H   0  0  0  0  0  0  0  0  0  0  0  0
  -36.4832  -28.3858  -22.9126 H   0  0  0  0  0  0  0  0  0  0  0  0
  -38.5871  -25.1981  -30.8226 H   0  0  0  0  0  0  0  0  0  0  0  0
  -39.3388  -30.1627  -23.1652 H   0  0  0  0  0  0  0  0  0  0  0  0
  -38.2138  -26.5146  -25.0372 H   0  0  0  0  0  0  0  0  0  0  0  0
  -40.7479  -27.7485  -28.0902 H   0  0  0  0  0  0  0  0  0  0  0  0
  -39.8115  -29.7285  -27.4016 H   0  0  0  0  0  0  0  0  0  0  0  0
  -42.7746  -30.1301  -23.9687 H   0  0  0  0  0  0  0  0  0  0  0  0
  -43.2708  -31.1774  -25.3321 H   0  0  0  0  0  0  0  0  0  0  0  0
  -43.6221  -31.6602  -23.6474 H   0  0  0  0  0  0  0  0  0  0  0  0
  -40.3744  -25.3500  -32.1432 H   0  0  0  0  0  0  0  0  0  0  0  0
  -42.4290  -25.4178  -33.3618 H   0  0  0  0  0  0  0  0  0  0  0  0
  -42.3878  -27.2721  -28.8182 H   0  0  0  0  0  0  0  0  0  0  0  0
  -44.3256  -27.3082  -29.9604 H   0  0  0  0  0  0  0  0  0  0  0  0
  -45.0134  -24.4335  -33.3006 H   0  0  0  0  0  0  0  0  0  0  0  0
  -44.2276  -25.6286  -34.3486 H   0  0  0  0  0  0  0  0  0  0  0  0
  -46.1464  -26.1291  -35.3877 H   0  0  0  0  0  0  0  0  0  0  0  0
  -46.9403  -24.8301  -34.4857 H   0  0  0  0  0  0  0  0  0  0  0  0
  -47.9726  -25.5146  -32.3535 H   0  0  0  0  0  0  0  0  0  0  0  0
  -47.9892  -27.2544  -32.0462 H   0  0  0  0  0  0  0  0  0  0  0  0
  -46.0940  -27.1168  -30.8754 H   0  0  0  0  0  0  0  0  0  0  0  0
  -46.0468  -25.3459  -31.1158 H   0  0  0  0  0  0  0  0  0  0  0  0
  -35.5770  -26.2099  -27.5543 H   0  0  0  0  0  0  0  0  0  0  0  0
  -36.4316  -27.1587  -26.3322 H   0  0  0  0  0  0  0  0  0  0  0  0
  -40.3665  -31.8265  -26.3459 H   0  0  0  0  0  0  0  0  0  0  0  0
  -46.6876  -27.6060  -33.8348 H   0  0  0  0  0  0  0  0  0  0  0  0
  -48.0352  -26.7858  -34.2558 H   0  0  0  0  0  0  0  0  0  0  0  0
  1 31  1  0
  1 33  1  0
  1 34  1  0
  1 35  1  0
  2 14  2  0
  2 27  1  0
  2 36  1  0
  3 32  2  0
  4  5  2  0
  4 12  1  0
  4 37  1  0
  5  6  1  0
  5 31  1  0
  6 10  2  0
  6 38  1  0
  7  9  2  0
  7 14  1  0
  7 39  1  0
  8  9  1  0
  8 25  1  0
  8 27  2  0
  9 10  1  0
 10 11  1  0
 11 12  2  0
 11 40  1  0
 12 26  1  0
 13 32  1  0
 13 41  1  0
 13 42  1  0
 13 43  1  0
 14 15  1  0
 15 16  2  0
 15 18  1  0
 16 17  1  0
 16 44  1  0
 17 20  2  0
 17 45  1  0
 18 19  2  0
 18 46  1  0
 19 20  1  0
 19 47  1  0
 20 28  1  0
 21 22  1  0
 21 28  1  0
 21 48  1  0
 21 49  1  0
 22 29  1  0
 22 50  1  0
 22 51  1  0
 23 24  1  0
 23 29  1  0
 23 52  1  0
 23 53  1  0
 24 28  1  0
 24 54  1  0
 24 55  1  0
 25 56  1  0
 25 57  1  0
 26 32  1  0
 26 58  1  0
 29 59  1  0
 29 60  1  0
 30 32  2  0
M  CHG  1  29   1
M  END
$$$$
