ROF_ref
     RDKit          3D

 40 42  0  0  1  0  0  0  0  0999 V2000
   40.2350    1.4280   63.3210 O   0  0  0  0  0  0  0  0  0  0  0  0
   42.3520    0.7350   69.6400 C   0  0  0  0  0  0  0  0  0  0  0  0
   43.6920    1.5000   69.4550 C   0  0  0  0  0  0  0  0  0  0  0  0
   43.3180    0.3500   68.5660 C   0  0  0  0  0  0  0  0  0  0  0  0
   41.1320    1.7530   62.5500 C   0  0  0  0  0  0  0  0  0  0  0  0
   42.5240    1.7360   63.1200 C   0  0  0  0  0  0  0  0  0  0  0  0
   43.6700    2.0290   62.3730 C   0  0  0  0  0  0  0  0  0  0  0  0
   44.9500    2.0140   62.9380 C   0  0  0  0  0  0  0  0  0  0  0  0
   45.1150    1.6770   64.2720 C   0  0  0  0  0  0  0  0  0  0  0  0
   46.3270    1.6180   64.9120 O   0  0  0  0  0  0  0  0  0  0  0  0
   47.5780    1.9090   64.3210 C   0  0  0  0  0  0  0  0  0  0  0  0
   47.8560    0.9630   63.4030 F   0  0  0  0  0  0  0  0  0  0  0  0
   47.5150    3.1390   63.7380 F   0  0  0  0  0  0  0  0  0  0  0  0
   43.9040    1.3490   65.0680 C   0  0  0  0  0  0  0  0  0  0  0  0
   44.0210    1.0400   66.3940 O   0  0  0  0  0  0  0  0  0  0  0  0
   43.2480    0.0700   67.0890 C   0  0  0  0  0  0  0  0  0  0  0  0
   42.6560    1.4080   64.4600 C   0  0  0  0  0  0  0  0  0  0  0  0
   40.9190    2.1030   61.2620 N   0  0  0  0  0  0  0  0  0  0  0  0
   39.6570    2.2570   60.8020 C   0  0  0  0  0  0  0  0  0  0  0  0
   38.6120    3.1250   61.3740 C   0  0  0  0  0  0  0  0  0  0  0  0
   38.9790    4.1070   62.7080 Cl  0  0  0  0  0  0  0  0  0  0  0  0
   37.3360    3.1420   60.8200 C   0  0  0  0  0  0  0  0  0  0  0  0
   37.0440    2.3710   59.7410 N   0  0  0  0  0  0  0  0  0  0  0  0
   37.9380    1.5630   59.1510 C   0  0  0  0  0  0  0  0  0  0  0  0
   39.2310    1.4680   59.6490 C   0  0  0  0  0  0  0  0  0  0  0  0
   40.3930    0.4290   58.9480 Cl  0  0  0  0  0  0  0  0  0  0  0  0
   41.4168    1.2158   69.3551 H   0  0  0  0  0  0  0  0  0  0  0  0
   42.2247    0.0661   70.4839 H   0  0  0  0  0  0  0  0  0  0  0  0
   44.4401    1.3801   70.2280 H   0  0  0  0  0  0  0  0  0  0  0  0
   43.6826    2.4902   69.0018 H   0  0  0  0  0  0  0  0  0  0  0  0
   43.9091   -0.5054   68.8999 H   0  0  0  0  0  0  0  0  0  0  0  0
   43.5888    2.2860   61.3278 H   0  0  0  0  0  0  0  0  0  0  0  0
   45.7961    2.2493   62.3128 H   0  0  0  0  0  0  0  0  0  0  0  0
   48.3491    1.9012   65.0745 H   0  0  0  0  0  0  0  0  0  0  0  0
   42.2019    0.0734   66.7880 H   0  0  0  0  0  0  0  0  0  0  0  0
   43.6350   -0.9009   66.8657 H   0  0  0  0  0  0  0  0  0  0  0  0
   41.7890    1.2062   65.0696 H   0  0  0  0  0  0  0  0  0  0  0  0
   41.6892    2.3271   60.6463 H   0  0  0  0  0  0  0  0  0  0  0  0
   36.5356    3.7275   61.2436 H   0  0  0  0  0  0  0  0  0  0  0  0
   37.6208    0.9784   58.3042 H   0  0  0  0  0  0  0  0  0  0  0  0
  1  5  2  0
  2  3  1  0
  2  4  1  0
  2 27  1  0
  2 28  1  0
  3  4  1  0
  3 29  1  0
  3 30  1  0
  4 16  1  0
  4 31  1  0
  5  6  1  0
  5 18  1  0
  6  7  2  0
  6 17  1  0
  7  8  1  0
  7 32  1  0
  8  9  2  0
  8 33  1  0
  9 10  1  0
  9 14  1  0
 10 11  1  0
 11 12  1  0
 11 13  1  0
 11 34  1  0
 14 15  1  0
 14 17  2  0
 15 16  1  0
 16 35  1  0
 16 36  1  0
 17 37  1  0
 18 19  1  0
 18 38  1  0
 19 20  2  0
 19 25  1  0
 20 21  1  0
 20 22  1  0
 22 23  2  0
 22 39  1  0
 23 24  1  0
 24 25  2  0
 24 40  1  0
 25 26  1  0
M  END
$$$$
