FSU_ref
     RDKit          3D

 34 35  0  0  1  0  0  0  0  0999 V2000
   -4.6740  -25.8860  -47.7320 C   0  0  0  0  0  0  0  0  0  0  0  0
   -5.5860  -25.9060  -46.7450 N   0  0  0  0  0  0  0  0  0  0  0  0
   -3.7630  -27.0530  -47.7560 C   0  0  0  0  0  0  0  0  0  0  0  0
   -4.2540  -27.7110  -46.6500 C   0  0  0  0  0  0  0  0  0  0  0  0
   -2.6810  -27.5590  -48.5130 C   0  0  0  0  0  0  0  0  0  0  0  0
   -5.3710  -27.0290  -46.0140 C   0  0  0  0  0  0  0  0  0  0  0  0
   -2.1320  -26.9020  -49.7510 C   0  0  0  0  0  0  0  0  0  0  0  0
   -4.6150  -24.9580  -48.6110 O   0  0  0  0  0  0  0  0  0  0  0  0
   -1.3320  -27.5450  -50.4280 O   0  0  0  0  0  0  0  0  0  0  0  0
   -2.5750  -25.7120  -50.1610 N   0  0  0  0  0  0  0  0  0  0  0  0
   -6.6240  -24.8780  -46.4800 C   0  0  0  0  0  0  0  0  0  0  0  0
   -3.6690  -28.9180  -46.2410 C   0  0  0  0  0  0  0  0  0  0  0  0
   -2.1150  -28.7630  -48.0870 C   0  0  0  0  0  0  0  0  0  0  0  0
   -6.1580  -23.9670  -45.3510 C   0  0  0  0  0  0  0  0  0  0  0  0
   -2.6030  -29.4440  -46.9750 C   0  0  0  0  0  0  0  0  0  0  0  0
   -7.7620  -22.3090  -46.1100 O   0  0  0  0  0  0  0  0  0  0  0  0
   -7.2250  -22.9410  -44.9380 C   0  0  0  0  0  0  0  0  0  0  0  0
   -8.9130  -21.5130  -45.8030 C   0  0  0  0  0  0  0  0  0  0  0  0
   -6.2718  -27.6439  -46.0055 H   0  0  0  0  0  0  0  0  0  0  0  0
   -5.1747  -26.7703  -44.9755 H   0  0  0  0  0  0  0  0  0  0  0  0
   -2.2376  -25.3056  -51.0240 H   0  0  0  0  0  0  0  0  0  0  0  0
   -3.3036  -25.2408  -49.6375 H   0  0  0  0  0  0  0  0  0  0  0  0
   -7.5597  -25.3682  -46.2088 H   0  0  0  0  0  0  0  0  0  0  0  0
   -6.8382  -24.2956  -47.3777 H   0  0  0  0  0  0  0  0  0  0  0  0
   -4.0295  -29.4433  -45.3731 H   0  0  0  0  0  0  0  0  0  0  0  0
   -1.2776  -29.2055  -48.6068 H   0  0  0  0  0  0  0  0  0  0  0  0
   -5.2651  -23.4276  -45.6713 H   0  0  0  0  0  0  0  0  0  0  0  0
   -5.8699  -24.5475  -44.4736 H   0  0  0  0  0  0  0  0  0  0  0  0
   -2.1311  -30.3626  -46.6614 H   0  0  0  0  0  0  0  0  0  0  0  0
   -6.7970  -22.1988  -44.2664 H   0  0  0  0  0  0  0  0  0  0  0  0
   -8.0256  -23.4455  -44.3985 H   0  0  0  0  0  0  0  0  0  0  0  0
   -9.3187  -21.0852  -46.7200 H   0  0  0  0  0  0  0  0  0  0  0  0
   -9.7006  -22.0988  -45.3304 H   0  0  0  0  0  0  0  0  0  0  0  0
   -8.6508  -20.6926  -45.1343 H   0  0  0  0  0  0  0  0  0  0  0  0
  1  2  1  0
  1  3  1  0
  1  8  2  0
  2  6  1  0
  2 11  1  0
  3  4  2  0
  3  5  1  0
  4  6  1  0
  4 12  1  0
  5  7  1  0
  5 13  2  0
  6 19  1  0
  6 20  1  0
  7  9  2  0
  7 10  1  0
 10 21  1  0
 10 22  1  0
 11 14  1  0
 11 23  1  0
 11 24  1  0
 12 15  2  0
 12 25  1  0
 13 15  1  0
 13 26  1  0
 14 17  1  0
 14 27  1  0
 14 28  1  0
 15 29  1  0
 16 17  1  0
 16 18  1  0
 17 30  1  0
 17 31  1  0
 18 32  1  0
 18 33  1  0
 18 34  1  0
M  END
$$$$
