VL1_ref
     RDKit          3D

 87 92  0  0  1  0  0  0  0  0999 V2000
   36.5860   -3.7550   17.5480 C   0  0  0  0  0  0  0  0  0  0  0  0
   35.1050   -5.2870   18.9450 C   0  0  0  0  0  0  0  0  0  0  0  0
   32.9940   -4.5240   19.8860 C   0  0  0  0  0  0  0  0  0  0  0  0
   34.3320   -3.0200   18.5670 C   0  0  0  0  0  0  0  0  0  0  0  0
   28.0430   -4.2670   21.3670 C   0  0  0  0  0  0  0  0  0  0  0  0
   26.4850   -2.4980   20.8920 C   0  0  0  0  0  0  0  0  0  0  0  0
   25.7070   -4.5190   22.0050 C   0  0  0  0  0  0  0  0  0  0  0  0
   24.0070   -2.6820   21.5100 C   0  0  0  0  0  0  0  0  0  0  0  0
   39.8750    1.4740   19.4140 C   0  0  0  0  0  0  0  0  0  0  0  0
   39.2700    2.2170   17.1880 C   0  0  0  0  0  0  0  0  0  0  0  0
   38.3680    0.1090   17.9570 C   0  0  0  0  0  0  0  0  0  0  0  0
   39.4320   -0.7430   17.7180 C   0  0  0  0  0  0  0  0  0  0  0  0
   39.0250   -2.2340   17.4920 C   0  0  0  0  0  0  0  0  0  0  0  0
   37.7040   -1.8140   19.3110 C   0  0  0  0  0  0  0  0  0  0  0  0
   37.4560   -0.3400   18.9100 C   0  0  0  0  0  0  0  0  0  0  0  0
   35.2870   -4.0280   18.3800 C   0  0  0  0  0  0  0  0  0  0  0  0
   33.9480   -5.5300   19.6950 C   0  0  0  0  0  0  0  0  0  0  0  0
   33.1730   -3.2640   19.3190 C   0  0  0  0  0  0  0  0  0  0  0  0
   30.5010   -4.2630   20.5080 C   0  0  0  0  0  0  0  0  0  0  0  0
   27.8020   -2.9970   20.8490 C   0  0  0  0  0  0  0  0  0  0  0  0
   25.4510   -3.2540   21.4620 C   0  0  0  0  0  0  0  0  0  0  0  0
   27.0180   -5.0200   21.9650 C   0  0  0  0  0  0  0  0  0  0  0  0
   22.4770   -1.0070   21.0460 C   0  0  0  0  0  0  0  0  0  0  0  0
   21.8100   -2.9150   22.1680 C   0  0  0  0  0  0  0  0  0  0  0  0
   20.9540   -5.1210   23.1710 C   0  0  0  0  0  0  0  0  0  0  0  0
   20.3040   -5.4460   24.5140 C   0  0  0  0  0  0  0  0  0  0  0  0
   18.7940   -3.6990   24.2800 C   0  0  0  0  0  0  0  0  0  0  0  0
   19.3790   -3.3230   22.9170 C   0  0  0  0  0  0  0  0  0  0  0  0
   22.9800    1.4720   20.8640 C   0  0  0  0  0  0  0  0  0  0  0  0
   22.2520    2.7790   21.2020 C   0  0  0  0  0  0  0  0  0  0  0  0
   20.3580    1.4670   21.6700 C   0  0  0  0  0  0  0  0  0  0  0  0
   20.7630    0.7540   20.3880 C   0  0  0  0  0  0  0  0  0  0  0  0
   38.8150    1.4880   18.3810 N   0  0  0  0  0  0  0  0  0  0  0  0
   37.6130   -2.7580   18.0370 N   0  0  0  0  0  0  0  0  0  0  0  0
   31.8100   -4.8950   20.6800 N   0  0  0  0  0  0  0  0  0  0  0  0
   29.4170   -4.7970   21.3700 N   0  0  0  0  0  0  0  0  0  0  0  0
   23.7260   -1.4830   20.9830 N   0  0  0  0  0  0  0  0  0  0  0  0
   21.5170   -1.7210   21.6400 N   0  0  0  0  0  0  0  0  0  0  0  0
   23.0570   -3.3910   22.1110 N   0  0  0  0  0  0  0  0  0  0  0  0
   20.7830   -3.7120   22.8260 N   0  0  0  0  0  0  0  0  0  0  0  0
   22.1610    0.3220   20.4510 N   0  0  0  0  0  0  0  0  0  0  0  0
   36.7690   -4.3470   16.5390 O   0  0  0  0  0  0  0  0  0  0  0  0
   30.3300   -3.4010   19.7210 O   0  0  0  0  0  0  0  0  0  0  0  0
   18.9820   -5.0380   24.5900 O   0  0  0  0  0  0  0  0  0  0  0  0
   21.0030    2.6870   21.8130 O   0  0  0  0  0  0  0  0  0  0  0  0
   35.8510   -6.0590   18.8421 H   0  0  0  0  0  0  0  0  0  0  0  0
   34.4817   -2.0433   18.1313 H   0  0  0  0  0  0  0  0  0  0  0  0
   26.2928   -1.5129   20.4928 H   0  0  0  0  0  0  0  0  0  0  0  0
   24.9335   -5.1014   22.4804 H   0  0  0  0  0  0  0  0  0  0  0  0
   39.5841    0.8124   20.2311 H   0  0  0  0  0  0  0  0  0  0  0  0
   40.8347    1.1830   18.9812 H   0  0  0  0  0  0  0  0  0  0  0  0
   39.9446    2.4966   19.7887 H   0  0  0  0  0  0  0  0  0  0  0  0
   38.4591    2.2410   16.4579 H   0  0  0  0  0  0  0  0  0  0  0  0
   39.4859    3.2375   17.5101 H   0  0  0  0  0  0  0  0  0  0  0  0
   40.1704    1.7626   16.7722 H   0  0  0  0  0  0  0  0  0  0  0  0
   37.8026    0.2058   17.0243 H   0  0  0  0  0  0  0  0  0  0  0  0
   40.0915   -0.8161   18.5827 H   0  0  0  0  0  0  0  0  0  0  0  0
   40.1059   -0.4028   16.9315 H   0  0  0  0  0  0  0  0  0  0  0  0
   39.8179   -2.9103   17.8150 H   0  0  0  0  0  0  0  0  0  0  0  0
   38.9362   -2.3153   16.4078 H   0  0  0  0  0  0  0  0  0  0  0  0
   36.9745   -2.1703   20.0377 H   0  0  0  0  0  0  0  0  0  0  0  0
   38.6536   -1.9527   19.8340 H   0  0  0  0  0  0  0  0  0  0  0  0
   36.4331   -0.2693   18.5334 H   0  0  0  0  0  0  0  0  0  0  0  0
   37.4321    0.2199   19.8492 H   0  0  0  0  0  0  0  0  0  0  0  0
   33.7917   -6.4462   20.2304 H   0  0  0  0  0  0  0  0  0  0  0  0
   32.4664   -2.4688   19.4654 H   0  0  0  0  0  0  0  0  0  0  0  0
   28.5263   -2.3266   20.4310 H   0  0  0  0  0  0  0  0  0  0  0  0
   27.2319   -5.9946   22.3779 H   0  0  0  0  0  0  0  0  0  0  0  0
   20.5425   -5.7343   22.3692 H   0  0  0  0  0  0  0  0  0  0  0  0
   22.0109   -5.3761   23.2480 H   0  0  0  0  0  0  0  0  0  0  0  0
   20.8651   -4.9417   25.3008 H   0  0  0  0  0  0  0  0  0  0  0  0
   20.3842   -6.4947   24.7763 H   0  0  0  0  0  0  0  0  0  0  0  0
   17.7218   -3.5018   24.2805 H   0  0  0  0  0  0  0  0  0  0  0  0
   19.2129   -3.0795   25.0737 H   0  0  0  0  0  0  0  0  0  0  0  0
   19.2804   -2.2435   22.7992 H   0  0  0  0  0  0  0  0  0  0  0  0
   18.8140   -3.7823   22.1045 H   0  0  0  0  0  0  0  0  0  0  0  0
   23.5525    1.1924   21.7493 H   0  0  0  0  0  0  0  0  0  0  0  0
   23.7190    1.6551   20.0835 H   0  0  0  0  0  0  0  0  0  0  0  0
   22.1204    3.3588   20.2874 H   0  0  0  0  0  0  0  0  0  0  0  0
   22.8912    3.3917   21.8392 H   0  0  0  0  0  0  0  0  0  0  0  0
   20.5522    0.8505   22.5492 H   0  0  0  0  0  0  0  0  0  0  0  0
   19.2846    1.6566   21.6601 H   0  0  0  0  0  0  0  0  0  0  0  0
   20.6296    1.4154   19.5304 H   0  0  0  0  0  0  0  0  0  0  0  0
   20.0924   -0.0863   20.2161 H   0  0  0  0  0  0  0  0  0  0  0  0
   38.0097    1.9697   18.7565 H   0  0  0  0  0  0  0  0  0  0  0  0
   31.8576   -5.7454   21.2379 H   0  0  0  0  0  0  0  0  0  0  0  0
   29.6209   -5.5743   21.9902 H   0  0  0  0  0  0  0  0  0  0  0  0
  1 16  1  0
  1 34  1  0
  1 42  2  0
  2 16  2  0
  2 17  1  0
  2 46  1  0
  3 17  2  0
  3 18  1  0
  3 35  1  0
  4 16  1  0
  4 18  2  0
  4 47  1  0
  5 20  1  0
  5 22  2  0
  5 36  1  0
  6 20  2  0
  6 21  1  0
  6 48  1  0
  7 21  2  0
  7 22  1  0
  7 49  1  0
  8 21  1  0
  8 37  2  0
  8 39  1  0
  9 33  1  0
  9 50  1  0
  9 51  1  0
  9 52  1  0
 10 33  1  0
 10 53  1  0
 10 54  1  0
 10 55  1  0
 11 12  1  0
 11 15  1  0
 11 33  1  0
 11 56  1  0
 12 13  1  0
 12 57  1  0
 12 58  1  0
 13 34  1  0
 13 59  1  0
 13 60  1  0
 14 15  1  0
 14 34  1  0
 14 61  1  0
 14 62  1  0
 15 63  1  0
 15 64  1  0
 17 65  1  0
 18 66  1  0
 19 35  1  0
 19 36  1  0
 19 43  2  0
 20 67  1  0
 22 68  1  0
 23 37  1  0
 23 38  2  0
 23 41  1  0
 24 38  1  0
 24 39  2  0
 24 40  1  0
 25 26  1  0
 25 40  1  0
 25 69  1  0
 25 70  1  0
 26 44  1  0
 26 71  1  0
 26 72  1  0
 27 28  1  0
 27 44  1  0
 27 73  1  0
 27 74  1  0
 28 40  1  0
 28 75  1  0
 28 76  1  0
 29 30  1  0
 29 41  1  0
 29 77  1  0
 29 78  1  0
 30 45  1  0
 30 79  1  0
 30 80  1  0
 31 32  1  0
 31 45  1  0
 31 81  1  0
 31 82  1  0
 32 41  1  0
 32 83  1  0
 32 84  1  0
 33 85  1  0
 35 86  1  0
 36 87  1  0
M  CHG  1  33   1
M  END
$$$$
