DZN_ref
     RDKit          3D

 50 53  0  0  1  0  0  0  0  0999 V2000
   73.8000   96.9610  100.8760 O   0  0  0  0  0  0  0  0  0  0  0  0
   74.7950   97.1800   99.9030 C   0  0  0  0  0  0  0  0  0  0  0  0
   75.3950   95.8060   99.5390 C   0  0  1  0  0  0  0  0  0  0  0  0
   74.7020   94.7290  100.1810 O   0  0  0  0  0  0  0  0  0  0  0  0
   75.5220   95.7020   98.0110 C   0  0  1  0  0  0  0  0  0  0  0  0
   76.5430   96.6460   97.5900 O   0  0  0  0  0  0  0  0  0  0  0  0
   75.7950   94.2300   97.5700 C   0  0  2  0  0  0  0  0  0  0  0  0
   75.5380   94.0170   96.1900 O   0  0  0  0  0  0  0  0  0  0  0  0
   74.9910   93.1800   98.3590 C   0  0  1  0  0  0  0  0  0  0  0  0
   75.4770   91.8790   97.9910 O   0  0  0  0  0  0  0  0  0  0  0  0
   75.1920   93.4330   99.8850 C   0  0  2  0  0  0  0  0  0  0  0  0
   74.5100   92.4080  100.6450 O   0  0  0  0  0  0  0  0  0  0  0  0
   74.4660   92.3060  102.0490 C   0  0  0  0  0  0  0  0  0  0  0  0
   73.5400   91.4150  102.5990 C   0  0  0  0  0  0  0  0  0  0  0  0
   73.4080   91.2270  103.9740 C   0  0  0  0  0  0  0  0  0  0  0  0
   74.2080   91.9460  104.8490 C   0  0  0  0  0  0  0  0  0  0  0  0
   75.1950   92.8940  104.2840 C   0  0  0  0  0  0  0  0  0  0  0  0
   75.2990   93.0450  102.8930 C   0  0  0  0  0  0  0  0  0  0  0  0
   75.9780   93.5990  105.1570 O   0  0  0  0  0  0  0  0  0  0  0  0
   75.8900   93.4610  106.5820 C   0  0  0  0  0  0  0  0  0  0  0  0
   74.9910   92.5940  107.2070 C   0  0  0  0  0  0  0  0  0  0  0  0
   74.1000   91.7820  106.3280 C   0  0  0  0  0  0  0  0  0  0  0  0
   73.2630   90.9840  106.7930 O   0  0  0  0  0  0  0  0  0  0  0  0
   74.9600   92.5190  108.7070 C   0  0  0  0  0  0  0  0  0  0  0  0
   75.8180   93.3330  109.4450 C   0  0  0  0  0  0  0  0  0  0  0  0
   75.8280   93.2970  110.8330 C   0  0  0  0  0  0  0  0  0  0  0  0
   74.9810   92.4330  111.5100 C   0  0  0  0  0  0  0  0  0  0  0  0
   74.9930   92.3950  112.8710 O   0  0  0  0  0  0  0  0  0  0  0  0
   74.1160   91.6160  110.7900 C   0  0  0  0  0  0  0  0  0  0  0  0
   74.1050   91.6590  109.4010 C   0  0  0  0  0  0  0  0  0  0  0  0
   73.2860   96.1869  100.6204 H   0  0  0  0  0  0  0  0  0  0  0  0
   75.5506   97.8673  100.2859 H   0  0  0  0  0  0  0  0  0  0  0  0
   74.3045   97.6692   99.0602 H   0  0  0  0  0  0  0  0  0  0  0  0
   76.3978   95.7729   99.9726 H   0  0  0  0  0  0  0  0  0  0  0  0
   74.5782   96.0108   97.5600 H   0  0  0  0  0  0  0  0  0  0  0  0
   77.3829   96.4408   98.0141 H   0  0  0  0  0  0  0  0  0  0  0  0
   76.8545   94.0285   97.7257 H   0  0  0  0  0  0  0  0  0  0  0  0
   75.7403   94.8268   95.7133 H   0  0  0  0  0  0  0  0  0  0  0  0
   73.9257   93.2418   98.1299 H   0  0  0  0  0  0  0  0  0  0  0  0
   75.0013   91.2253   98.5099 H   0  0  0  0  0  0  0  0  0  0  0  0
   76.2400   93.4327  100.1791 H   0  0  0  0  0  0  0  0  0  0  0  0
   72.9317   90.8336  101.9230 H   0  0  0  0  0  0  0  0  0  0  0  0
   72.6893   90.5091  104.3422 H   0  0  0  0  0  0  0  0  0  0  0  0
   75.9999   93.7533  102.4843 H   0  0  0  0  0  0  0  0  0  0  0  0
   76.5767   94.1407  107.0455 H   0  0  0  0  0  0  0  0  0  0  0  0
   76.5043   94.0374  109.0087 H   0  0  0  0  0  0  0  0  0  0  0  0
   76.4143   94.0285  111.3420 H   0  0  0  0  0  0  0  0  0  0  0  0
   74.3686   91.7623  113.2332 H   0  0  0  0  0  0  0  0  0  0  0  0
   73.4973   90.9183  111.2866 H   0  0  0  0  0  0  0  0  0  0  0  0
   73.4132   90.9650  108.9708 H   0  0  0  0  0  0  0  0  0  0  0  0
  1  2  1  0
  1 31  1  0
  2  3  1  0
  2 32  1  0
  2 33  1  0
  3  4  1  0
  3  5  1  0
  3 34  1  1
  4 11  1  0
  5  6  1  0
  5  7  1  0
  5 35  1  6
  6 36  1  0
  7  8  1  0
  7  9  1  0
  7 37  1  6
  8 38  1  0
  9 10  1  0
  9 11  1  0
  9 39  1  1
 10 40  1  0
 11 12  1  0
 11 41  1  6
 12 13  1  0
 13 14  2  0
 13 18  1  0
 14 15  1  0
 14 42  1  0
 15 16  2  0
 15 43  1  0
 16 17  1  0
 16 22  1  0
 17 18  2  0
 17 19  1  0
 18 44  1  0
 19 20  1  0
 20 21  2  0
 20 45  1  0
 21 22  1  0
 21 24  1  0
 22 23  2  0
 24 25  2  0
 24 30  1  0
 25 26  1  0
 25 46  1  0
 26 27  2  0
 26 47  1  0
 27 28  1  0
 27 29  1  0
 28 48  1  0
 29 30  2  0
 29 49  1  0
 30 50  1  0
M  END
$$$$
