IYS_ref
     RDKit          3D

 51 55  0  0  1  0  0  0  0  0999 V2000
   19.4190   -7.6740   -8.4220 N   0  0  0  0  0  0  0  0  0  0  0  0
   19.7180  -10.5230   -4.4080 N   0  0  0  0  0  0  0  0  0  0  0  0
   19.0090  -11.2990   -3.4310 C   0  0  0  0  0  0  0  0  0  0  0  0
   19.1060   -9.3750   -4.9880 C   0  0  0  0  0  0  0  0  0  0  0  0
   19.9710   -8.5970   -9.3570 C   0  0  0  0  0  0  0  0  0  0  0  0
   19.5110   -6.3340   -8.9150 C   0  0  0  0  0  0  0  0  0  0  0  0
   17.9650   -8.8550   -4.5470 N   0  0  0  0  0  0  0  0  0  0  0  0
   17.7820  -10.6720   -2.8840 C   0  0  0  0  0  0  0  0  0  0  0  0
   20.3960   -7.7900  -10.5600 C   0  0  0  0  0  0  0  0  0  0  0  0
   20.1190   -6.4150  -10.2850 C   0  0  0  0  0  0  0  0  0  0  0  0
   17.3060   -9.4570   -3.4640 C   0  0  0  0  0  0  0  0  0  0  0  0
   19.8250   -8.7340   -6.1680 C   0  0  0  0  0  0  0  0  0  0  0  0
   18.8480   -8.0660   -7.1530 C   0  0  0  0  0  0  0  0  0  0  0  0
   21.0400  -10.9280   -4.7860 C   0  0  0  0  0  0  0  0  0  0  0  0
   19.4140  -12.4290   -3.0740 O   0  0  0  0  0  0  0  0  0  0  0  0
   19.1600   -5.3130   -8.3120 O   0  0  0  0  0  0  0  0  0  0  0  0
   20.0670   -9.8250   -9.1590 O   0  0  0  0  0  0  0  0  0  0  0  0
   22.1380  -10.6580   -3.9390 C   0  0  0  0  0  0  0  0  0  0  0  0
   21.2480  -11.6310   -6.0060 C   0  0  0  0  0  0  0  0  0  0  0  0
   17.1030  -11.2670   -1.7990 C   0  0  0  0  0  0  0  0  0  0  0  0
   23.6120  -11.7660   -5.5140 C   0  0  0  0  0  0  0  0  0  0  0  0
   22.5230  -12.0440   -6.3730 C   0  0  0  0  0  0  0  0  0  0  0  0
   23.4170  -11.0760   -4.3060 C   0  0  0  0  0  0  0  0  0  0  0  0
   20.9730   -8.1760  -11.7620 C   0  0  0  0  0  0  0  0  0  0  0  0
   20.4120   -5.4130  -11.2030 C   0  0  0  0  0  0  0  0  0  0  0  0
   16.1260   -8.8710   -2.9230 C   0  0  0  0  0  0  0  0  0  0  0  0
   24.8330  -12.2260   -5.9740 O   0  0  0  0  0  0  0  0  0  0  0  0
   24.8240  -13.4530   -6.7240 C   0  0  0  0  0  0  0  0  0  0  0  0
   15.9540  -10.6660   -1.2860 C   0  0  0  0  0  0  0  0  0  0  0  0
   20.9920   -5.8090  -12.4290 C   0  0  0  0  0  0  0  0  0  0  0  0
   21.2680   -7.1550  -12.7010 C   0  0  0  0  0  0  0  0  0  0  0  0
   15.4690   -9.4760   -1.8550 C   0  0  0  0  0  0  0  0  0  0  0  0
   20.5673   -9.3345   -6.6799 H   0  0  0  0  0  0  0  0  0  0  0  0
   20.3378   -7.8790   -5.7536 H   0  0  0  0  0  0  0  0  0  0  0  0
   17.8984   -8.5702   -7.2924 H   0  0  0  0  0  0  0  0  0  0  0  0
   18.5288   -7.1400   -6.6744 H   0  0  0  0  0  0  0  0  0  0  0  0
   21.9935  -10.1410   -3.0021 H   0  0  0  0  0  0  0  0  0  0  0  0
   20.4239  -11.8574   -6.6618 H   0  0  0  0  0  0  0  0  0  0  0  0
   17.4585  -12.1845   -1.3504 H   0  0  0  0  0  0  0  0  0  0  0  0
   22.6198  -12.5438   -7.3235 H   0  0  0  0  0  0  0  0  0  0  0  0
   24.2603  -10.8880   -3.6600 H   0  0  0  0  0  0  0  0  0  0  0  0
   21.1962   -9.2095  -11.9843 H   0  0  0  0  0  0  0  0  0  0  0  0
   20.2070   -4.3713  -11.0014 H   0  0  0  0  0  0  0  0  0  0  0  0
   15.7251   -7.9549   -3.3194 H   0  0  0  0  0  0  0  0  0  0  0  0
   25.8261  -13.8804   -6.6919 H   0  0  0  0  0  0  0  0  0  0  0  0
   24.1457  -14.2041   -6.3137 H   0  0  0  0  0  0  0  0  0  0  0  0
   24.5954  -13.2826   -7.7771 H   0  0  0  0  0  0  0  0  0  0  0  0
   15.4314  -11.1153   -0.4533 H   0  0  0  0  0  0  0  0  0  0  0  0
   21.2301   -5.0565  -13.1664 H   0  0  0  0  0  0  0  0  0  0  0  0
   21.7175   -7.4234  -13.6455 H   0  0  0  0  0  0  0  0  0  0  0  0
   14.5713   -9.0280   -1.4546 H   0  0  0  0  0  0  0  0  0  0  0  0
  1  5  1  0
  1  6  1  0
  1 13  1  0
  2  3  1  0
  2  4  1  0
  2 14  1  0
  3  8  1  0
  3 15  2  0
  4  7  2  0
  4 12  1  0
  5  9  1  0
  5 17  2  0
  6 10  1  0
  6 16  2  0
  7 11  1  0
  8 11  2  0
  8 20  1  0
  9 10  2  0
  9 24  1  0
 10 25  1  0
 11 26  1  0
 12 13  1  0
 12 33  1  0
 12 34  1  0
 13 35  1  0
 13 36  1  0
 14 18  2  0
 14 19  1  0
 18 23  1  0
 18 37  1  0
 19 22  2  0
 19 38  1  0
 20 29  2  0
 20 39  1  0
 21 22  1  0
 21 23  2  0
 21 27  1  0
 22 40  1  0
 23 41  1  0
 24 31  2  0
 24 42  1  0
 25 30  2  0
 25 43  1  0
 26 32  2  0
 26 44  1  0
 27 28  1  0
 28 45  1  0
 28 46  1  0
 28 47  1  0
 29 32  1  0
 29 48  1  0
 30 31  1  0
 30 49  1  0
 31 50  1  0
 32 51  1  0
M  END
$$$$
