M1J_ref
     RDKit          3D

 52 55  0  0  1  0  0  0  0  0999 V2000
  -16.5760    8.4630   26.7410 C   0  0  0  0  0  0  0  0  0  0  0  0
  -18.5640    9.4280   27.9440 N   0  0  0  0  0  0  0  0  0  0  0  0
  -19.1390   10.3950   28.6880 C   0  0  0  0  0  0  0  0  0  0  0  0
  -20.9160   10.8700   30.4110 C   0  0  0  0  0  0  0  0  0  0  0  0
  -17.1260   11.6140   28.7310 C   0  0  0  0  0  0  0  0  0  0  0  0
  -14.3030   14.2500   29.1650 C   0  0  0  0  0  0  0  0  0  0  0  0
  -16.0000   14.8860   30.5880 C   0  0  0  0  0  0  0  0  0  0  0  0
  -16.5200   12.6180   31.5970 C   0  0  0  0  0  0  0  0  0  0  0  0
  -15.2630    6.7450   25.1010 C   0  0  0  0  0  0  0  0  0  0  0  0
  -15.9670    6.2410   26.1320 C   0  0  0  0  0  0  0  0  0  0  0  0
  -16.6520    7.0850   26.9930 C   0  0  0  0  0  0  0  0  0  0  0  0
  -17.4610    6.4570   28.1840 C   0  0  0  0  0  0  0  0  0  0  0  0
  -15.8410    8.8870   25.6770 C   0  0  0  0  0  0  0  0  0  0  0  0
  -17.2760    9.5420   27.5970 C   0  0  0  0  0  0  0  0  0  0  0  0
  -22.1630   11.8180   30.3460 C   0  0  0  0  0  0  0  0  0  0  0  0
  -23.0580   10.6260   28.5710 C   0  0  0  0  0  0  0  0  0  0  0  0
  -21.5550   10.5950   28.0800 C   0  0  0  0  0  0  0  0  0  0  0  0
  -14.8760   12.8240   29.0430 C   0  0  0  0  0  0  0  0  0  0  0  0
  -16.7510   13.5360   30.3660 C   0  0  2  0  0  0  0  0  0  0  0  0
  -18.7700    6.2810   27.8160 F   0  0  0  0  0  0  0  0  0  0  0  0
  -17.4130    7.2640   29.3140 F   0  0  0  0  0  0  0  0  0  0  0  0
  -14.5130    5.8160   24.1580 N   0  0  0  0  0  0  0  0  0  0  0  0
  -15.2140    8.0630   24.8990 N   0  0  0  0  0  0  0  0  0  0  0  0
  -20.5260   10.3080   29.0840 N   0  0  0  0  0  0  0  0  0  0  0  0
  -18.4060   11.4990   29.0800 N   0  0  0  0  0  0  0  0  0  0  0  0
  -16.3500   12.8100   29.1680 N   0  0  0  0  0  0  0  0  0  0  0  0
  -16.5470   10.6500   27.9910 N   0  0  0  0  0  0  0  0  0  0  0  0
  -23.2570   11.1320   29.8680 O   0  0  0  0  0  0  0  0  0  0  0  0
  -14.6240   14.8090   30.3870 O   0  0  0  0  0  0  0  0  0  0  0  0
  -21.1198   10.0995   31.1390 H   0  0  0  0  0  0  0  0  0  0  0  0
  -20.1001   11.4430   30.8507 H   0  0  0  0  0  0  0  0  0  0  0  0
  -14.6493   14.8789   28.3471 H   0  0  0  0  0  0  0  0  0  0  0  0
  -13.2200   14.1901   29.0659 H   0  0  0  0  0  0  0  0  0  0  0  0
  -16.2098   15.2936   31.5777 H   0  0  0  0  0  0  0  0  0  0  0  0
  -16.4026   15.6323   29.8998 H   0  0  0  0  0  0  0  0  0  0  0  0
  -17.2077   11.7827   31.5381 H   0  0  0  0  0  0  0  0  0  0  0  0
  -15.4939   12.2640   31.6909 H   0  0  0  0  0  0  0  0  0  0  0  0
  -16.7567   13.1477   32.5189 H   0  0  0  0  0  0  0  0  0  0  0  0
  -15.9910    5.1744   26.2761 H   0  0  0  0  0  0  0  0  0  0  0  0
  -17.0253    5.5451   28.4905 H   0  0  0  0  0  0  0  0  0  0  0  0
  -15.7311    9.9353   25.4587 H   0  0  0  0  0  0  0  0  0  0  0  0
  -21.9620   12.7112   29.7496 H   0  0  0  0  0  0  0  0  0  0  0  0
  -22.4014   12.1732   31.3487 H   0  0  0  0  0  0  0  0  0  0  0  0
  -23.4568    9.6114   28.5558 H   0  0  0  0  0  0  0  0  0  0  0  0
  -23.6661   11.1983   27.8696 H   0  0  0  0  0  0  0  0  0  0  0  0
  -21.3226   11.5577   27.6210 H   0  0  0  0  0  0  0  0  0  0  0  0
  -21.4591    9.8599   27.2798 H   0  0  0  0  0  0  0  0  0  0  0  0
  -14.4171   12.1465   29.7631 H   0  0  0  0  0  0  0  0  0  0  0  0
  -14.6056   12.4451   28.0565 H   0  0  0  0  0  0  0  0  0  0  0  0
  -17.8126   13.7783   30.2965 H   0  0  0  0  0  0  0  0  0  0  0  0
  -13.9447    6.1581   23.3804 H   0  0  0  0  0  0  0  0  0  0  0  0
  -14.5771    4.8212   24.3000 H   0  0  0  0  0  0  0  0  0  0  0  0
  1 11  2  0
  1 13  1  0
  1 14  1  0
  2  3  2  0
  2 14  1  0
  3 24  1  0
  3 25  1  0
  4 15  1  0
  4 24  1  0
  4 30  1  0
  4 31  1  0
  5 25  2  0
  5 26  1  0
  5 27  1  0
  6 18  1  0
  6 29  1  0
  6 32  1  0
  6 33  1  0
  7 19  1  0
  7 29  1  0
  7 34  1  0
  7 35  1  0
  8 19  1  0
  8 36  1  0
  8 37  1  0
  8 38  1  0
  9 10  2  0
  9 22  1  0
  9 23  1  0
 10 11  1  0
 10 39  1  0
 11 12  1  0
 12 20  1  0
 12 21  1  0
 12 40  1  0
 13 23  2  0
 13 41  1  0
 14 27  2  0
 15 28  1  0
 15 42  1  0
 15 43  1  0
 16 17  1  0
 16 28  1  0
 16 44  1  0
 16 45  1  0
 17 24  1  0
 17 46  1  0
 17 47  1  0
 18 26  1  0
 18 48  1  0
 18 49  1  0
 19 26  1  0
 19 50  1  6
 22 51  1  0
 22 52  1  0
M  END
$$$$
