25d
  PyMOL2.4          3D                             0

 40 43  0  0  0  0  0  0  0  0999 V2000
   42.9920   37.7800   64.8560 N   0  0  0  0  0  0  0  0  0  0  0  0
   43.8290   37.1900   63.9470 C   0  0  0  0  0  0  0  0  0  0  0  0
   45.0980   36.6190   64.2170 C   0  0  0  0  0  0  0  0  0  0  0  0
   45.4960   36.6480   65.5750 C   0  0  0  0  0  0  0  0  0  0  0  0
   44.6630   37.1940   66.4840 N   0  0  0  0  0  0  0  0  0  0  0  0
   43.4950   37.7060   66.0930 C   0  0  0  0  0  0  0  0  0  0  0  0
   45.6790   36.1150   63.0660 N   0  0  0  0  0  0  0  0  0  0  0  0
   44.7850   36.3640   62.1410 C   0  0  0  0  0  0  0  0  0  0  0  0
   43.6380   37.0180   62.5840 N   0  0  0  0  0  0  0  0  0  0  0  0
   45.0440   35.9610   60.7950 N   0  0  0  0  0  0  0  0  0  0  0  0
   44.0800   35.7760   59.8520 N   0  0  0  0  0  0  0  0  0  0  0  0
   44.7500   35.4070   58.7920 C   0  0  0  0  0  0  0  0  0  0  0  0
   46.1240   35.3520   59.1030 C   0  0  0  0  0  0  0  0  0  0  0  0
   46.3020   35.6880   60.3540 N   0  0  0  0  0  0  0  0  0  0  0  0
   46.6410   36.1420   66.0200 N   0  0  0  0  0  0  0  0  0  0  0  0
   42.4750   37.4420   61.8190 C   0  0  0  0  0  0  0  0  0  0  0  0
   42.6460   38.2430   67.2230 C   0  0  0  0  0  0  0  0  0  0  0  0
   43.1180   39.6140   67.7300 C   0  0  0  0  0  0  0  0  0  0  0  0
   42.6730   39.8370   69.1650 C   0  0  0  0  0  0  0  0  0  0  0  0
   43.6010   39.6950   70.2210 C   0  0  0  0  0  0  0  0  0  0  0  0
   43.1720   39.8150   71.5600 C   0  0  0  0  0  0  0  0  0  0  0  0
   41.8230   40.0950   71.8450 C   0  0  0  0  0  0  0  0  0  0  0  0
   40.8970   40.2430   70.7940 C   0  0  0  0  0  0  0  0  0  0  0  0
   41.3210   40.1180   69.4550 C   0  0  0  0  0  0  0  0  0  0  0  0
   44.2330   35.1590   57.8740 H   0  0  0  0  0  0  0  0  0  0  0  0
   46.9420   35.0490   58.4760 H   0  0  0  0  0  0  0  0  0  0  0  0
   47.3230   35.7820   65.3590 H   0  0  0  0  0  0  0  0  0  0  0  0
   46.8820   36.2200   67.0050 H   0  0  0  0  0  0  0  0  0  0  0  0
   42.0770   36.6080   61.2420 H   0  0  0  0  0  0  0  0  0  0  0  0
   41.6830   37.7880   62.4800 H   0  0  0  0  0  0  0  0  0  0  0  0
   42.7580   38.2480   61.1370 H   0  0  0  0  0  0  0  0  0  0  0  0
   42.7040   37.5230   68.0360 H   0  0  0  0  0  0  0  0  0  0  0  0
   41.5920   38.2890   66.9320 H   0  0  0  0  0  0  0  0  0  0  0  0
   42.7390   40.4110   67.0880 H   0  0  0  0  0  0  0  0  0  0  0  0
   44.2060   39.6760   67.7090 H   0  0  0  0  0  0  0  0  0  0  0  0
   44.6330   39.4500   70.0100 H   0  0  0  0  0  0  0  0  0  0  0  0
   43.8810   39.7040   72.3690 H   0  0  0  0  0  0  0  0  0  0  0  0
   41.5010   40.2070   72.8670 H   0  0  0  0  0  0  0  0  0  0  0  0
   39.8630   40.4580   71.0140 H   0  0  0  0  0  0  0  0  0  0  0  0
   40.6060   40.2260   68.6530 H   0  0  0  0  0  0  0  0  0  0  0  0
  1  2  1  0  0  0  0
  1  6  2  0  0  0  0
  2  3  2  0  0  0  0
  2  9  1  0  0  0  0
  3  4  1  0  0  0  0
  3  7  1  0  0  0  0
  4  5  2  0  0  0  0
  4 15  1  0  0  0  0
  5  6  1  0  0  0  0
  6 17  1  0  0  0  0
  7  8  2  0  0  0  0
  8  9  1  0  0  0  0
  8 10  1  0  0  0  0
  9 16  1  0  0  0  0
 10 11  1  0  0  0  0
 10 14  1  0  0  0  0
 11 12  2  0  0  0  0
 12 13  1  0  0  0  0
 12 25  1  0  0  0  0
 13 14  2  0  0  0  0
 13 26  1  0  0  0  0
 15 27  1  0  0  0  0
 15 28  1  0  0  0  0
 16 29  1  0  0  0  0
 16 30  1  0  0  0  0
 16 31  1  0  0  0  0
 17 18  1  0  0  0  0
 17 32  1  0  0  0  0
 17 33  1  0  0  0  0
 18 19  1  0  0  0  0
 18 34  1  0  0  0  0
 18 35  1  0  0  0  0
 19 20  1  0  0  0  0
 19 24  2  0  0  0  0
 20 21  2  0  0  0  0
 20 36  1  0  0  0  0
 21 22  1  0  0  0  0
 21 37  1  0  0  0  0
 22 23  2  0  0  0  0
 22 38  1  0  0  0  0
 23 24  1  0  0  0  0
 23 39  1  0  0  0  0
 24 40  1  0  0  0  0
M  END
$$$$
