082_ref
     RDKit          3D

 55 60  0  0  1  0  0  0  0  0999 V2000
   34.8460  -18.5970   37.4740 C   0  0  0  0  0  0  0  0  0  0  0  0
   34.8640  -17.9550   38.7000 C   0  0  0  0  0  0  0  0  0  0  0  0
   37.0400  -19.3850   44.4340 C   0  0  0  0  0  0  0  0  0  0  0  0
   32.3110  -24.3750   38.5010 C   0  0  0  0  0  0  0  0  0  0  0  0
   38.0180  -20.3360   44.2240 C   0  0  0  0  0  0  0  0  0  0  0  0
   35.8240  -19.4710   43.7870 C   0  0  0  0  0  0  0  0  0  0  0  0
   34.7330  -19.9720   37.4050 C   0  0  0  0  0  0  0  0  0  0  0  0
   34.7690  -18.6450   39.8970 C   0  0  0  0  0  0  0  0  0  0  0  0
   31.6100  -25.4690   38.0410 C   0  0  0  0  0  0  0  0  0  0  0  0
   36.5720  -21.4750   42.7370 C   0  0  0  0  0  0  0  0  0  0  0  0
   33.0590  -25.7740   36.1310 C   0  0  0  0  0  0  0  0  0  0  0  0
   33.4120  -23.9790   37.7580 C   0  0  0  0  0  0  0  0  0  0  0  0
   37.7910  -21.4080   43.3810 C   0  0  0  0  0  0  0  0  0  0  0  0
   35.5900  -20.5260   42.9270 C   0  0  0  0  0  0  0  0  0  0  0  0
   34.6480  -20.6510   38.6000 C   0  0  0  0  0  0  0  0  0  0  0  0
   34.6650  -20.0110   39.8080 C   0  0  0  0  0  0  0  0  0  0  0  0
   33.7340  -24.6790   36.6170 C   0  0  0  0  0  0  0  0  0  0  0  0
   31.9790  -26.1480   36.8970 C   0  0  0  0  0  0  0  0  0  0  0  0
   34.4020  -22.9600   37.8500 C   0  0  0  0  0  0  0  0  0  0  0  0
   38.2850  -23.7760   43.5570 C   0  0  0  0  0  0  0  0  0  0  0  0
   39.6190  -23.0380   45.0750 C   0  0  0  0  0  0  0  0  0  0  0  0
   34.4560  -22.2260   40.2340 C   0  0  0  0  0  0  0  0  0  0  0  0
   38.8110  -22.4690   43.0440 C   0  0  1  0  0  0  0  0  0  0  0  0
   39.2920  -22.4770   41.6250 C   0  0  0  0  0  0  0  0  0  0  0  0
   31.2400  -28.1370   37.5820 C   0  0  0  0  0  0  0  0  0  0  0  0
   34.2970  -20.6610   42.1980 C   0  0  0  0  0  0  0  0  0  0  0  0
   35.2570  -23.0390   36.8190 N   0  0  0  0  0  0  0  0  0  0  0  0
   38.7340  -23.9830   44.7840 N   0  0  0  0  0  0  0  0  0  0  0  0
   34.5130  -22.0130   38.8660 N   0  0  0  0  0  0  0  0  0  0  0  0
   34.5560  -20.9740   40.8090 N   0  0  0  0  0  0  0  0  0  0  0  0
   37.4390  -24.4420   42.9750 O   0  0  0  0  0  0  0  0  0  0  0  0
   40.3360  -22.9850   46.0610 O   0  0  0  0  0  0  0  0  0  0  0  0
   34.3510  -23.2830   40.8340 O   0  0  0  0  0  0  0  0  0  0  0  0
   34.8290  -24.1130   36.0440 O   0  0  0  0  0  0  0  0  0  0  0  0
   39.8220  -22.2330   44.0060 O   0  0  0  0  0  0  0  0  0  0  0  0
   31.2480  -27.2440   36.4730 O   0  0  0  0  0  0  0  0  0  0  0  0
   34.9520  -18.0251   36.5640 H   0  0  0  0  0  0  0  0  0  0  0  0
   35.0309  -16.8974   38.6720 H   0  0  0  0  0  0  0  0  0  0  0  0
   37.2325  -18.5573   45.1006 H   0  0  0  0  0  0  0  0  0  0  0  0
   32.0080  -23.8451   39.3878 H   0  0  0  0  0  0  0  0  0  0  0  0
   38.9557  -20.1900   44.7394 H   0  0  0  0  0  0  0  0  0  0  0  0
   35.0698  -18.7156   43.9545 H   0  0  0  0  0  0  0  0  0  0  0  0
   34.7478  -20.4712   36.4535 H   0  0  0  0  0  0  0  0  0  0  0  0
   34.8156  -18.1350   40.8455 H   0  0  0  0  0  0  0  0  0  0  0  0
   30.7245  -25.7612   38.5846 H   0  0  0  0  0  0  0  0  0  0  0  0
   36.3960  -22.3025   42.0702 H   0  0  0  0  0  0  0  0  0  0  0  0
   33.3516  -26.2953   35.2324 H   0  0  0  0  0  0  0  0  0  0  0  0
   40.1376  -23.1488   41.4717 H   0  0  0  0  0  0  0  0  0  0  0  0
   38.4749  -22.7443   40.9608 H   0  0  0  0  0  0  0  0  0  0  0  0
   39.5883  -21.4695   41.3649 H   0  0  0  0  0  0  0  0  0  0  0  0
   31.0103  -29.1305   37.1966 H   0  0  0  0  0  0  0  0  0  0  0  0
   32.1851  -28.2397   38.1221 H   0  0  0  0  0  0  0  0  0  0  0  0
   30.4435  -27.9083   38.2921 H   0  0  0  0  0  0  0  0  0  0  0  0
   33.7224  -19.7368   42.2727 H   0  0  0  0  0  0  0  0  0  0  0  0
   33.6985  -21.4425   42.6691 H   0  0  0  0  0  0  0  0  0  0  0  0
  1  2  2  0
  1  7  1  0
  1 37  1  0
  2  8  1  0
  2 38  1  0
  3  5  2  0
  3  6  1  0
  3 39  1  0
  4  9  2  0
  4 12  1  0
  4 40  1  0
  5 13  1  0
  5 41  1  0
  6 14  2  0
  6 42  1  0
  7 15  2  0
  7 43  1  0
  8 16  2  0
  8 44  1  0
  9 18  1  0
  9 45  1  0
 10 13  2  0
 10 14  1  0
 10 46  1  0
 11 17  1  0
 11 18  2  0
 11 47  1  0
 12 17  2  0
 12 19  1  0
 13 23  1  0
 14 26  1  0
 15 16  1  0
 15 29  1  0
 16 30  1  0
 17 34  1  0
 18 36  1  0
 19 27  2  0
 19 29  1  0
 20 23  1  0
 20 28  1  0
 20 31  2  0
 21 28  1  0
 21 32  2  0
 21 35  1  0
 22 29  1  0
 22 30  1  0
 22 33  2  0
 23 24  1  6
 23 35  1  0
 24 48  1  0
 24 49  1  0
 24 50  1  0
 25 36  1  0
 25 51  1  0
 25 52  1  0
 25 53  1  0
 26 30  1  0
 26 54  1  0
 26 55  1  0
 27 34  1  0
M  CHG  1  28  -1
M  END
$$$$
