0KP_ref
     RDKit          3D

 45 48  0  0  1  0  0  0  0  0999 V2000
   20.3390   32.3540   56.6980 O   0  0  0  0  0  0  0  0  0  0  0  0
   20.4680   33.5260   56.9840 C   0  0  0  0  0  0  0  0  0  0  0  0
   20.6980   34.7180   55.9980 C   0  0  1  0  0  0  0  0  0  0  0  0
   20.5160   35.9250   56.9050 N   0  0  0  0  0  0  0  0  0  0  0  0
   20.4250   35.4880   58.1590 C   0  0  0  0  0  0  0  0  0  0  0  0
   20.3920   34.0490   58.2520 N   0  0  0  0  0  0  0  0  0  0  0  0
   20.2770   36.2890   59.2230 N   0  0  0  0  0  0  0  0  0  0  0  0
   20.1970   33.2250   59.4520 C   0  0  0  0  0  0  0  0  0  0  0  0
   22.1350   34.6360   55.4580 C   0  0  0  0  0  0  0  0  0  0  0  0
   22.9620   35.7500   55.4670 C   0  0  0  0  0  0  0  0  0  0  0  0
   24.2770   35.6650   55.0230 C   0  0  0  0  0  0  0  0  0  0  0  0
   24.7760   34.4720   54.5540 C   0  0  0  0  0  0  0  0  0  0  0  0
   23.9600   33.3600   54.5120 C   0  0  0  0  0  0  0  0  0  0  0  0
   22.6470   33.4380   54.9540 C   0  0  0  0  0  0  0  0  0  0  0  0
   19.6000   34.7560   54.9200 C   0  0  0  0  0  0  0  0  0  0  0  0
   19.9220   34.7920   53.5690 C   0  0  0  0  0  0  0  0  0  0  0  0
   18.9270   34.7600   52.6090 C   0  0  0  0  0  0  0  0  0  0  0  0
   17.5950   34.7250   52.9900 C   0  0  0  0  0  0  0  0  0  0  0  0
   17.2390   34.7270   54.3390 C   0  0  0  0  0  0  0  0  0  0  0  0
   18.2560   34.7290   55.3020 C   0  0  0  0  0  0  0  0  0  0  0  0
   13.2410   34.6290   55.7170 C   0  0  0  0  0  0  0  0  0  0  0  0
   14.0770   35.5260   56.2490 N   0  0  0  0  0  0  0  0  0  0  0  0
   15.3300   35.5650   55.7660 C   0  0  0  0  0  0  0  0  0  0  0  0
   15.8050   34.7300   54.7600 C   0  0  0  0  0  0  0  0  0  0  0  0
   14.8920   33.8330   54.2120 C   0  0  0  0  0  0  0  0  0  0  0  0
   13.5960   33.7790   54.6960 C   0  0  0  0  0  0  0  0  0  0  0  0
   20.9927   36.8003   56.7074 H   0  0  0  0  0  0  0  0  0  0  0  0
   20.1156   35.9204   60.1549 H   0  0  0  0  0  0  0  0  0  0  0  0
   20.2529   37.2980   59.0801 H   0  0  0  0  0  0  0  0  0  0  0  0
   20.5801   33.7581   60.3208 H   0  0  0  0  0  0  0  0  0  0  0  0
   19.1295   33.0390   59.5720 H   0  0  0  0  0  0  0  0  0  0  0  0
   20.7299   32.2792   59.3460 H   0  0  0  0  0  0  0  0  0  0  0  0
   22.6548   36.7157   55.8095 H   0  0  0  0  0  0  0  0  0  0  0  0
   24.8845   36.5480   55.0901 H   0  0  0  0  0  0  0  0  0  0  0  0
   25.7991   34.4048   54.2186 H   0  0  0  0  0  0  0  0  0  0  0  0
   24.3494   32.4312   54.1367 H   0  0  0  0  0  0  0  0  0  0  0  0
   22.0372   32.5495   54.8888 H   0  0  0  0  0  0  0  0  0  0  0  0
   20.9453   34.8243   53.2342 H   0  0  0  0  0  0  0  0  0  0  0  0
   19.1946   34.7519   51.5625 H   0  0  0  0  0  0  0  0  0  0  0  0
   16.8330   34.6474   52.2417 H   0  0  0  0  0  0  0  0  0  0  0  0
   17.9944   34.6893   56.3421 H   0  0  0  0  0  0  0  0  0  0  0  0
   12.2423   34.6067   56.1273 H   0  0  0  0  0  0  0  0  0  0  0  0
   15.9844   36.2853   56.2313 H   0  0  0  0  0  0  0  0  0  0  0  0
   15.2381   33.1593   53.4503 H   0  0  0  0  0  0  0  0  0  0  0  0
   12.8848   33.0722   54.2956 H   0  0  0  0  0  0  0  0  0  0  0  0
  1  2  2  0
  2  3  1  0
  2  6  1  0
  3  4  1  0
  3  9  1  6
  3 15  1  0
  4  5  2  0
  4 27  1  0
  5  6  1  0
  5  7  1  0
  6  8  1  0
  7 28  1  0
  7 29  1  0
  8 30  1  0
  8 31  1  0
  8 32  1  0
  9 10  2  0
  9 14  1  0
 10 11  1  0
 10 33  1  0
 11 12  2  0
 11 34  1  0
 12 13  1  0
 12 35  1  0
 13 14  2  0
 13 36  1  0
 14 37  1  0
 15 16  2  0
 15 20  1  0
 16 17  1  0
 16 38  1  0
 17 18  2  0
 17 39  1  0
 18 19  1  0
 18 40  1  0
 19 20  2  0
 19 24  1  0
 20 41  1  0
 21 22  2  0
 21 26  1  0
 21 42  1  0
 22 23  1  0
 23 24  2  0
 23 43  1  0
 24 25  1  0
 25 26  2  0
 25 44  1  0
 26 45  1  0
M  CHG  1   4   1
M  END
$$$$
