9QD_ref
     RDKit          3D

 85 89  0  0  1  0  0  0  0  0999 V2000
   64.5990  -56.5270  211.3220 N   0  0  0  0  0  0  0  0  0  0  0  0
   54.5050  -55.3090  208.8660 N   0  0  0  0  0  0  0  0  0  0  0  0
   65.0410  -56.5170  209.9260 C   0  0  0  0  0  0  0  0  0  0  0  0
   65.4850  -56.7840  212.2890 C   0  0  0  0  0  0  0  0  0  0  0  0
   64.9840  -57.0280  213.6880 C   0  0  0  0  0  0  0  0  0  0  0  0
   65.3340  -58.4570  214.1220 C   0  0  1  0  0  0  0  0  0  0  0  0
   64.9410  -58.7290  215.5680 C   0  0  0  0  0  0  0  0  0  0  0  0
   65.3590  -60.0670  212.2220 C   0  0  0  0  0  0  0  0  0  0  0  0
   62.6550  -60.5570  212.5440 C   0  0  0  0  0  0  0  0  0  0  0  0
   63.2000  -56.1750  211.6000 C   0  0  0  0  0  0  0  0  0  0  0  0
   59.6550  -58.2990  209.7290 C   0  0  0  0  0  0  0  0  0  0  0  0
   55.7880  -55.7160  208.7190 C   0  0  0  0  0  0  0  0  0  0  0  0
   53.8590  -54.5260  207.9790 C   0  0  0  0  0  0  0  0  0  0  0  0
   52.3940  -54.3190  208.2620 C   0  0  0  0  0  0  0  0  0  0  0  0
   50.3880  -52.8520  206.2240 C   0  0  0  0  0  0  0  0  0  0  0  0
   46.9780  -51.6470  207.1760 C   0  0  0  0  0  0  0  0  0  0  0  0
   49.1050  -54.7430  206.8720 C   0  0  0  0  0  0  0  0  0  0  0  0
   60.3790  -57.6880  208.7710 N   0  0  0  0  0  0  0  0  0  0  0  0
   59.8080  -56.6910  207.9790 C   0  0  0  0  0  0  0  0  0  0  0  0
   60.4350  -56.1040  207.0840 O   0  0  0  0  0  0  0  0  0  0  0  0
   61.7860  -58.0110  208.5070 C   0  0  0  0  0  0  0  0  0  0  0  0
   64.7160  -60.9660  211.3720 C   0  0  0  0  0  0  0  0  0  0  0  0
   63.3540  -61.2100  211.5290 C   0  0  0  0  0  0  0  0  0  0  0  0
   63.2900  -59.6550  213.3920 C   0  0  0  0  0  0  0  0  0  0  0  0
   62.2620  -56.9780  210.6990 C   0  0  0  0  0  0  0  0  0  0  0  0
   57.6880  -57.0580  209.2980 C   0  0  0  0  0  0  0  0  0  0  0  0
   56.3510  -56.7190  209.5330 C   0  0  0  0  0  0  0  0  0  0  0  0
   62.6660  -57.0040  209.2320 C   0  0  0  0  0  0  0  0  0  0  0  0
   51.5470  -54.7760  207.0790 C   0  0  0  0  0  0  0  0  0  0  0  0
   49.2900  -51.8940  206.6600 C   0  0  0  0  0  0  0  0  0  0  0  0
   47.9380  -53.8500  207.2830 C   0  0  0  0  0  0  0  0  0  0  0  0
   56.5290  -55.0840  207.7250 C   0  0  0  0  0  0  0  0  0  0  0  0
   64.1220  -57.4200  209.1220 C   0  0  0  0  0  0  0  0  0  0  0  0
   57.8480  -55.3820  207.4570 C   0  0  0  0  0  0  0  0  0  0  0  0
   58.4250  -56.3470  208.2250 C   0  0  0  0  0  0  0  0  0  0  0  0
   64.6470  -59.4150  213.2290 C   0  0  0  0  0  0  0  0  0  0  0  0
   58.3640  -58.0040  209.9880 N   0  0  0  0  0  0  0  0  0  0  0  0
   50.3210  -53.9760  207.1580 N   0  0  0  0  0  0  0  0  0  0  0  0
   47.9720  -52.5520  206.5770 N   0  0  0  0  0  0  0  0  0  0  0  0
   62.4910  -55.7070  208.6320 O   0  0  0  0  0  0  0  0  0  0  0  0
   66.6790  -56.8330  212.0600 O   0  0  0  0  0  0  0  0  0  0  0  0
   54.3330  -53.9720  206.9910 O   0  0  0  0  0  0  0  0  0  0  0  0
   53.9890  -55.6639  209.6614 H   0  0  0  0  0  0  0  0  0  0  0  0
   66.0621  -56.8740  209.7827 H   0  0  0  0  0  0  0  0  0  0  0  0
   64.9753  -55.4933  209.5539 H   0  0  0  0  0  0  0  0  0  0  0  0
   63.9777  -56.7578  213.9791 H   0  0  0  0  0  0  0  0  0  0  0  0
   65.6077  -56.4342  214.3280 H   0  0  0  0  0  0  0  0  0  0  0  0
   66.4124  -58.6257  214.0718 H   0  0  0  0  0  0  0  0  0  0  0  0
   65.1714  -59.7528  215.8668 H   0  0  0  0  0  0  0  0  0  0  0  0
   65.4957  -58.0582  216.2207 H   0  0  0  0  0  0  0  0  0  0  0  0
   63.8921  -58.5385  215.7854 H   0  0  0  0  0  0  0  0  0  0  0  0
   66.4071  -59.8580  212.0717 H   0  0  0  0  0  0  0  0  0  0  0  0
   61.5993  -60.7468  212.6681 H   0  0  0  0  0  0  0  0  0  0  0  0
   63.0875  -55.1180  211.3523 H   0  0  0  0  0  0  0  0  0  0  0  0
   62.8095  -56.3297  212.5956 H   0  0  0  0  0  0  0  0  0  0  0  0
   60.1627  -59.0700  210.3014 H   0  0  0  0  0  0  0  0  0  0  0  0
   52.4103  -53.2267  208.2144 H   0  0  0  0  0  0  0  0  0  0  0  0
   51.8514  -54.3445  209.1762 H   0  0  0  0  0  0  0  0  0  0  0  0
   51.3563  -52.3515  206.2845 H   0  0  0  0  0  0  0  0  0  0  0  0
   50.2607  -53.1723  205.1870 H   0  0  0  0  0  0  0  0  0  0  0  0
   45.9997  -52.1209  207.0740 H   0  0  0  0  0  0  0  0  0  0  0  0
   47.2151  -51.4691  208.2279 H   0  0  0  0  0  0  0  0  0  0  0  0
   46.9878  -50.7141  206.6086 H   0  0  0  0  0  0  0  0  0  0  0  0
   49.0441  -55.0327  205.8204 H   0  0  0  0  0  0  0  0  0  0  0  0
   49.0884  -55.6615  207.4610 H   0  0  0  0  0  0  0  0  0  0  0  0
   62.0016  -58.0353  207.4363 H   0  0  0  0  0  0  0  0  0  0  0  0
   62.0029  -59.0160  208.8734 H   0  0  0  0  0  0  0  0  0  0  0  0
   65.2657  -61.4516  210.5823 H   0  0  0  0  0  0  0  0  0  0  0  0
   62.8514  -61.9042  210.8736 H   0  0  0  0  0  0  0  0  0  0  0  0
   62.7101  -59.1493  214.1423 H   0  0  0  0  0  0  0  0  0  0  0  0
   61.2575  -56.5954  210.8684 H   0  0  0  0  0  0  0  0  0  0  0  0
   62.2415  -57.9983  211.0853 H   0  0  0  0  0  0  0  0  0  0  0  0
   55.7833  -57.2110  210.3095 H   0  0  0  0  0  0  0  0  0  0  0  0
   51.3207  -55.8324  207.2230 H   0  0  0  0  0  0  0  0  0  0  0  0
   52.0472  -54.7487  206.1079 H   0  0  0  0  0  0  0  0  0  0  0  0
   49.2496  -51.0327  205.9902 H   0  0  0  0  0  0  0  0  0  0  0  0
   49.4539  -51.5380  207.6813 H   0  0  0  0  0  0  0  0  0  0  0  0
   47.9440  -53.6672  208.3611 H   0  0  0  0  0  0  0  0  0  0  0  0
   46.9876  -54.3151  207.0146 H   0  0  0  0  0  0  0  0  0  0  0  0
   56.3675  -54.2290  207.1091 H   0  0  0  0  0  0  0  0  0  0  0  0
   64.2491  -58.4478  209.4696 H   0  0  0  0  0  0  0  0  0  0  0  0
   64.4218  -57.4626  208.0751 H   0  0  0  0  0  0  0  0  0  0  0  0
   58.3366  -54.9831  206.6432 H   0  0  0  0  0  0  0  0  0  0  0  0
   47.7659  -52.7188  205.6011 H   0  0  0  0  0  0  0  0  0  0  0  0
   61.6290  -55.3581  208.8880 H   0  0  0  0  0  0  0  0  0  0  0  0
  1  3  1  0
  1  4  1  0
  1 10  1  0
  2 12  1  0
  2 13  1  0
  2 43  1  0
  3 33  1  0
  3 44  1  0
  3 45  1  0
  4  5  1  0
  4 41  2  0
  5  6  1  0
  5 46  1  0
  5 47  1  0
  6  7  1  0
  6 36  1  0
  6 48  1  1
  7 49  1  0
  7 50  1  0
  7 51  1  0
  8 22  2  0
  8 36  1  0
  8 52  1  0
  9 23  2  0
  9 24  1  0
  9 53  1  0
 10 25  1  0
 10 54  1  0
 10 55  1  0
 11 18  1  0
 11 37  2  0
 11 56  1  0
 12 27  1  0
 12 32  2  0
 13 14  1  0
 13 42  2  0
 14 29  1  0
 14 57  1  0
 14 58  1  0
 15 30  1  0
 15 38  1  0
 15 59  1  0
 15 60  1  0
 16 39  1  0
 16 61  1  0
 16 62  1  0
 16 63  1  0
 17 31  1  0
 17 38  1  0
 17 64  1  0
 17 65  1  0
 18 19  1  0
 18 21  1  0
 19 20  2  0
 19 35  1  0
 21 28  1  0
 21 66  1  0
 21 67  1  0
 22 23  1  0
 22 68  1  0
 23 69  1  0
 24 36  2  0
 24 70  1  0
 25 28  1  0
 25 71  1  0
 25 72  1  0
 26 27  2  0
 26 35  1  0
 26 37  1  0
 27 73  1  0
 28 33  1  0
 28 40  1  0
 29 38  1  0
 29 74  1  0
 29 75  1  0
 30 39  1  0
 30 76  1  0
 30 77  1  0
 31 39  1  0
 31 78  1  0
 31 79  1  0
 32 34  1  0
 32 80  1  0
 33 81  1  0
 33 82  1  0
 34 35  2  0
 34 83  1  0
 39 84  1  0
 40 85  1  0
M  CHG  1  39   1
M  END
$$$$
