0J3_ref
     RDKit          3D

 55 58  0  0  1  0  0  0  0  0999 V2000
   -4.7250   17.3410   34.7260 C   0  0  0  0  0  0  0  0  0  0  0  0
   -5.9100   18.1030   35.2380 C   0  0  0  0  0  0  0  0  0  0  0  0
   -5.6570   18.7360   36.5620 N   0  0  0  0  0  0  0  0  0  0  0  0
   -6.2770   18.2720   37.7510 C   0  0  0  0  0  0  0  0  0  0  0  0
   -4.3840   19.4930   36.6070 C   0  0  0  0  0  0  0  0  0  0  0  0
   -3.5470   19.3240   35.3850 C   0  0  0  0  0  0  0  0  0  0  0  0
   -3.5550   18.0170   34.9550 N   0  0  0  0  0  0  0  0  0  0  0  0
   -2.6120   17.6870   33.8640 C   0  0  0  0  0  0  0  0  0  0  0  0
   -2.6940   16.5240   33.1180 C   0  0  0  0  0  0  0  0  0  0  0  0
   -1.7440   16.3100   32.0800 C   0  0  0  0  0  0  0  0  0  0  0  0
   -1.5800   18.6380   33.5670 C   0  0  0  0  0  0  0  0  0  0  0  0
   -0.7200   18.4130   32.5960 N   0  0  0  0  0  0  0  0  0  0  0  0
   -0.7690   17.2890   31.8490 C   0  0  0  0  0  0  0  0  0  0  0  0
    0.1900   17.1190   30.8230 C   0  0  0  0  0  0  0  0  0  0  0  0
    0.1740   15.9760   30.0300 C   0  0  0  0  0  0  0  0  0  0  0  0
    1.1990   15.8200   28.9050 C   0  0  0  0  0  0  0  0  0  0  0  0
    0.5030   15.8650   27.7440 F   0  0  0  0  0  0  0  0  0  0  0  0
    2.0420   16.8300   28.8940 F   0  0  0  0  0  0  0  0  0  0  0  0
    1.8460   14.6800   28.9750 F   0  0  0  0  0  0  0  0  0  0  0  0
   -0.8270   14.9590   30.2590 C   0  0  0  0  0  0  0  0  0  0  0  0
   -1.7610   15.1220   31.2510 C   0  0  0  0  0  0  0  0  0  0  0  0
   -2.7580   14.0970   31.4800 N   0  0  0  0  0  0  0  0  0  0  0  0
   -2.8570   12.9630   30.5840 C   0  0  0  0  0  0  0  0  0  0  0  0
   -3.6070   13.2920   29.2920 C   0  0  0  0  0  0  0  0  0  0  0  0
   -2.8930   13.3800   28.0660 C   0  0  0  0  0  0  0  0  0  0  0  0
   -4.9910   13.5290   29.3350 C   0  0  0  0  0  0  0  0  0  0  0  0
   -5.6890   13.8460   28.1600 C   0  0  0  0  0  0  0  0  0  0  0  0
   -4.9760   13.9240   26.9300 C   0  0  0  0  0  0  0  0  0  0  0  0
   -3.5860   13.6900   26.9020 C   0  0  0  0  0  0  0  0  0  0  0  0
   -2.8980   13.7710   25.6550 N   0  0  0  0  0  0  0  0  0  0  0  0
   -3.5250   14.3000   24.6510 O   0  0  0  0  0  0  0  0  0  0  0  0
   -1.6640   13.3320   25.5140 O   0  0  0  0  0  0  0  0  0  0  0  0
   -4.9649   17.1919   33.6704 H   0  0  0  0  0  0  0  0  0  0  0  0
   -4.6858   16.3664   35.2125 H   0  0  0  0  0  0  0  0  0  0  0  0
   -6.7757   17.4478   35.3506 H   0  0  0  0  0  0  0  0  0  0  0  0
   -6.1990   18.9171   34.5689 H   0  0  0  0  0  0  0  0  0  0  0  0
   -6.2786   19.5236   36.4375 H   0  0  0  0  0  0  0  0  0  0  0  0
   -6.1737   19.0502   38.5092 H   0  0  0  0  0  0  0  0  0  0  0  0
   -7.3285   18.0793   37.5323 H   0  0  0  0  0  0  0  0  0  0  0  0
   -5.7538   17.3592   38.0409 H   0  0  0  0  0  0  0  0  0  0  0  0
   -3.8529   19.1514   37.4987 H   0  0  0  0  0  0  0  0  0  0  0  0
   -4.6691   20.5360   36.7546 H   0  0  0  0  0  0  0  0  0  0  0  0
   -2.5528   19.6147   35.7048 H   0  0  0  0  0  0  0  0  0  0  0  0
   -3.9013   19.9999   34.6039 H   0  0  0  0  0  0  0  0  0  0  0  0
   -3.4289   15.7581   33.3152 H   0  0  0  0  0  0  0  0  0  0  0  0
   -1.4039   19.5617   34.0920 H   0  0  0  0  0  0  0  0  0  0  0  0
    0.9247   17.8975   30.6715 H   0  0  0  0  0  0  0  0  0  0  0  0
   -0.7800   14.0851   29.6363 H   0  0  0  0  0  0  0  0  0  0  0  0
   -3.0840   13.9650   32.4274 H   0  0  0  0  0  0  0  0  0  0  0  0
   -3.4153   12.1847   31.1054 H   0  0  0  0  0  0  0  0  0  0  0  0
   -1.8882   12.5058   30.3820 H   0  0  0  0  0  0  0  0  0  0  0  0
   -1.8332   13.1797   28.0313 H   0  0  0  0  0  0  0  0  0  0  0  0
   -5.5261   13.4673   30.2715 H   0  0  0  0  0  0  0  0  0  0  0  0
   -6.7558   14.0140   28.1854 H   0  0  0  0  0  0  0  0  0  0  0  0
   -5.4804   14.1537   26.0201 H   0  0  0  0  0  0  0  0  0  0  0  0
  1  2  1  0
  1  7  1  0
  1 33  1  0
  1 34  1  0
  2  3  1  0
  2 35  1  0
  2 36  1  0
  3  4  1  0
  3  5  1  0
  3 37  1  0
  4 38  1  0
  4 39  1  0
  4 40  1  0
  5  6  1  0
  5 41  1  0
  5 42  1  0
  6  7  1  0
  6 43  1  0
  6 44  1  0
  7  8  1  0
  8  9  2  0
  8 11  1  0
  9 10  1  0
  9 45  1  0
 10 13  2  0
 10 21  1  0
 11 12  2  0
 11 46  1  0
 12 13  1  0
 13 14  1  0
 14 15  2  0
 14 47  1  0
 15 16  1  0
 15 20  1  0
 16 17  1  0
 16 18  1  0
 16 19  1  0
 20 21  2  0
 20 48  1  0
 21 22  1  0
 22 23  1  0
 22 49  1  0
 23 24  1  0
 23 50  1  0
 23 51  1  0
 24 25  2  0
 24 26  1  0
 25 29  1  0
 25 52  1  0
 26 27  2  0
 26 53  1  0
 27 28  1  0
 27 54  1  0
 28 29  2  0
 28 55  1  0
 29 30  1  0
 30 31  1  0
 30 32  2  0
M  CHG  3   3   1  30   1  31  -1
M  END
$$$$
