LG2_ref
     RDKit          3D

 55 58  0  0  1  0  0  0  0  0999 V2000
   24.2480   20.2420    2.3080 C   0  0  0  0  0  0  0  0  0  0  0  0
   23.0310   19.8900    2.9220 C   0  0  0  0  0  0  0  0  0  0  0  0
   22.4280   20.7360    3.8600 C   0  0  0  0  0  0  0  0  0  0  0  0
   23.0710   21.9480    4.2050 C   0  0  0  0  0  0  0  0  0  0  0  0
   24.2790   22.2900    3.5930 C   0  0  0  0  0  0  0  0  0  0  0  0
   24.8760   21.4400    2.6420 C   0  0  0  0  0  0  0  0  0  0  0  0
   26.2240   21.8670    1.9890 C   0  0  0  0  0  0  0  0  0  0  0  0
   26.6460   21.0520    0.7690 C   0  0  0  0  0  0  0  0  0  0  0  0
   26.2930   19.5660    0.8120 C   0  0  0  0  0  0  0  0  0  0  0  0
   24.8560   19.2450    1.2550 C   0  0  0  0  0  0  0  0  0  0  0  0
   21.0870   20.2640    4.5050 C   0  0  0  0  0  0  0  0  0  0  0  0
   19.9310   20.5640    3.4950 C   0  0  0  0  0  0  0  0  0  0  0  0
   20.1850   21.0180    2.2760 N   0  0  0  0  0  0  0  0  0  0  0  0
   19.2110   21.2750    1.4090 C   0  0  0  0  0  0  0  0  0  0  0  0
   17.8680   21.0790    1.7210 C   0  0  0  0  0  0  0  0  0  0  0  0
   17.5550   20.6050    2.9930 C   0  0  0  0  0  0  0  0  0  0  0  0
   18.6020   20.3530    3.8720 C   0  0  0  0  0  0  0  0  0  0  0  0
   16.7620   21.3810    0.6960 C   0  0  0  0  0  0  0  0  0  0  0  0
   15.7570   20.6200    0.5680 O   0  0  0  0  0  0  0  0  0  0  0  0
   16.8590   22.3960   -0.0400 O   0  0  0  0  0  0  0  0  0  0  0  0
   20.4050   18.9910    5.0300 C   0  0  0  0  0  0  0  0  0  0  0  0
   21.3040   19.7970    5.9570 C   0  0  0  0  0  0  0  0  0  0  0  0
   26.1320   23.3610    1.5830 C   0  0  0  0  0  0  0  0  0  0  0  0
   27.3350   21.7160    3.0610 C   0  0  0  0  0  0  0  0  0  0  0  0
   24.8280   17.8140    1.8520 C   0  0  0  0  0  0  0  0  0  0  0  0
   23.9620   19.2790   -0.0110 C   0  0  0  0  0  0  0  0  0  0  0  0
   22.4780   22.9350    5.2390 C   0  0  0  0  0  0  0  0  0  0  0  0
   22.5284   18.9707    2.6679 H   0  0  0  0  0  0  0  0  0  0  0  0
   24.7553   23.2118    3.8876 H   0  0  0  0  0  0  0  0  0  0  0  0
   27.7074   21.1813    0.5470 H   0  0  0  0  0  0  0  0  0  0  0  0
   26.1337   21.4527   -0.1078 H   0  0  0  0  0  0  0  0  0  0  0  0
   26.9730   19.1255    1.5372 H   0  0  0  0  0  0  0  0  0  0  0  0
   26.5437   19.0818   -0.1342 H   0  0  0  0  0  0  0  0  0  0  0  0
   19.5212   21.6359    0.4395 H   0  0  0  0  0  0  0  0  0  0  0  0
   16.5328   20.5079    3.3260 H   0  0  0  0  0  0  0  0  0  0  0  0
   18.3544   20.2173    4.8848 H   0  0  0  0  0  0  0  0  0  0  0  0
   20.7526   18.0485    4.6145 H   0  0  0  0  0  0  0  0  0  0  0  0
   19.5873   18.8449    5.6974 H   0  0  0  0  0  0  0  0  0  0  0  0
   20.8732   20.4705    6.6854 H   0  0  0  0  0  0  0  0  0  0  0  0
   22.2557   19.3683    6.2693 H   0  0  0  0  0  0  0  0  0  0  0  0
   27.0386   23.6762    1.0644 H   0  0  0  0  0  0  0  0  0  0  0  0
   25.3082   23.5539    0.9070 H   0  0  0  0  0  0  0  0  0  0  0  0
   26.0312   24.0383    2.4296 H   0  0  0  0  0  0  0  0  0  0  0  0
   28.3074   22.0434    2.6892 H   0  0  0  0  0  0  0  0  0  0  0  0
   27.1247   22.3065    3.9540 H   0  0  0  0  0  0  0  0  0  0  0  0
   27.4444   20.6798    3.3851 H   0  0  0  0  0  0  0  0  0  0  0  0
   25.3733   17.1121    1.2230 H   0  0  0  0  0  0  0  0  0  0  0  0
   25.3119   17.7888    2.8277 H   0  0  0  0  0  0  0  0  0  0  0  0
   23.8276   17.4050    1.9766 H   0  0  0  0  0  0  0  0  0  0  0  0
   24.1449   18.4269   -0.6675 H   0  0  0  0  0  0  0  0  0  0  0  0
   22.9020   19.3006    0.2275 H   0  0  0  0  0  0  0  0  0  0  0  0
   24.1429   20.1796   -0.5994 H   0  0  0  0  0  0  0  0  0  0  0  0
   23.1866   23.7119    5.5195 H   0  0  0  0  0  0  0  0  0  0  0  0
   21.6071   23.4212    4.8104 H   0  0  0  0  0  0  0  0  0  0  0  0
   22.1770   22.4224    6.1514 H   0  0  0  0  0  0  0  0  0  0  0  0
  1  2  2  0
  1  6  1  0
  1 10  1  0
  2  3  1  0
  2 28  1  0
  3  4  2  0
  3 11  1  0
  4  5  1  0
  4 27  1  0
  5  6  2  0
  5 29  1  0
  6  7  1  0
  7  8  1  0
  7 23  1  0
  7 24  1  0
  8  9  1  0
  8 30  1  0
  8 31  1  0
  9 10  1  0
  9 32  1  0
  9 33  1  0
 10 25  1  0
 10 26  1  0
 11 12  1  0
 11 21  1  0
 11 22  1  0
 12 13  2  0
 12 17  1  0
 13 14  1  0
 14 15  2  0
 14 34  1  0
 15 16  1  0
 15 18  1  0
 16 17  2  0
 16 35  1  0
 17 36  1  0
 18 19  2  0
 18 20  1  0
 21 22  1  0
 21 37  1  0
 21 38  1  0
 22 39  1  0
 22 40  1  0
 23 41  1  0
 23 42  1  0
 23 43  1  0
 24 44  1  0
 24 45  1  0
 24 46  1  0
 25 47  1  0
 25 48  1  0
 25 49  1  0
 26 50  1  0
 26 51  1  0
 26 52  1  0
 27 53  1  0
 27 54  1  0
 27 55  1  0
M  CHG  1  20  -1
M  END
$$$$
