7BJ_ref
     RDKit          3D

 41 43  0  0  1  0  0  0  0  0999 V2000
   22.5580    9.0260   -4.5260 C   0  0  0  0  0  0  0  0  0  0  0  0
   23.2160    7.9420   -5.0190 C   0  0  0  0  0  0  0  0  0  0  0  0
   24.1190    7.5620   -2.8270 C   0  0  0  0  0  0  0  0  0  0  0  0
   25.5680    5.7080   -2.3270 C   0  0  0  0  0  0  0  0  0  0  0  0
   26.2250    5.0710   -1.1380 C   0  0  0  0  0  0  0  0  0  0  0  0
   28.1890    3.5960   -1.7310 C   0  0  0  0  0  0  0  0  0  0  0  0
   27.1460    1.4920   -1.7320 C   0  0  0  0  0  0  0  0  0  0  0  0
   26.8160    0.7230   -3.0170 C   0  0  0  0  0  0  0  0  0  0  0  0
   27.7060   -0.4930   -3.2200 C   0  0  0  0  0  0  0  0  0  0  0  0
   27.6630   -1.4080   -2.0070 C   0  0  0  0  0  0  0  0  0  0  0  0
   26.1290    2.6070   -1.5070 C   0  0  0  0  0  0  0  0  0  0  0  0
   23.4360    8.6730   -2.3530 C   0  0  0  0  0  0  0  0  0  0  0  0
   22.6470    9.4100   -3.2170 C   0  0  0  0  0  0  0  0  0  0  0  0
   21.7800    9.7560   -5.3720 F   0  0  0  0  0  0  0  0  0  0  0  0
   24.0060    7.1980   -4.1680 C   0  0  0  0  0  0  0  0  0  0  0  0
   24.8770    6.8900   -1.8990 O   0  0  0  0  0  0  0  0  0  0  0  0
   26.8260    3.7840   -1.4620 N   0  0  0  0  0  0  0  0  0  0  0  0
   29.0180    4.4820   -1.8270 O   0  0  0  0  0  0  0  0  0  0  0  0
   28.3730    2.2740   -1.8540 N   0  0  0  0  0  0  0  0  0  0  0  0
   28.0650   -0.6600   -0.7460 C   0  0  0  0  0  0  0  0  0  0  0  0
   27.1740    0.5500   -0.5250 C   0  0  0  0  0  0  0  0  0  0  0  0
   24.9340    2.4850   -1.3890 O   0  0  0  0  0  0  0  0  0  0  0  0
   23.1142    7.6640   -6.0577 H   0  0  0  0  0  0  0  0  0  0  0  0
   24.9145    5.0019   -2.8438 H   0  0  0  0  0  0  0  0  0  0  0  0
   26.3710    6.0229   -2.9789 H   0  0  0  0  0  0  0  0  0  0  0  0
   25.4752    4.9360   -0.3581 H   0  0  0  0  0  0  0  0  0  0  0  0
   26.9229    5.7724   -0.6836 H   0  0  0  0  0  0  0  0  0  0  0  0
   26.9266    1.3814   -3.8813 H   0  0  0  0  0  0  0  0  0  0  0  0
   25.7609    0.4409   -3.0457 H   0  0  0  0  0  0  0  0  0  0  0  0
   28.7370   -0.1829   -3.3953 H   0  0  0  0  0  0  0  0  0  0  0  0
   27.3950   -1.0386   -4.1117 H   0  0  0  0  0  0  0  0  0  0  0  0
   28.3331   -2.2553   -2.1591 H   0  0  0  0  0  0  0  0  0  0  0  0
   26.6628   -1.8285   -1.8886 H   0  0  0  0  0  0  0  0  0  0  0  0
   23.5211    8.9569   -1.3159 H   0  0  0  0  0  0  0  0  0  0  0  0
   22.1097   10.2768   -2.8621 H   0  0  0  0  0  0  0  0  0  0  0  0
   24.4986    6.3325   -4.5729 H   0  0  0  0  0  0  0  0  0  0  0  0
   29.2678    1.8305   -1.7061 H   0  0  0  0  0  0  0  0  0  0  0  0
   29.0943   -0.3286   -0.8319 H   0  0  0  0  0  0  0  0  0  0  0  0
   28.0236   -1.3218    0.1187 H   0  0  0  0  0  0  0  0  0  0  0  0
   26.1626    0.2475   -0.2463 H   0  0  0  0  0  0  0  0  0  0  0  0
   27.5369    1.0866    0.3545 H   0  0  0  0  0  0  0  0  0  0  0  0
  1  2  2  0
  1 13  1  0
  1 14  1  0
  2 15  1  0
  2 23  1  0
  3 12  1  0
  3 15  2  0
  3 16  1  0
  4  5  1  0
  4 16  1  0
  4 24  1  0
  4 25  1  0
  5 17  1  0
  5 26  1  0
  5 27  1  0
  6 17  1  0
  6 18  2  0
  6 19  1  0
  7  8  1  0
  7 11  1  0
  7 19  1  0
  7 21  1  0
  8  9  1  0
  8 28  1  0
  8 29  1  0
  9 10  1  0
  9 30  1  0
  9 31  1  0
 10 20  1  0
 10 32  1  0
 10 33  1  0
 11 17  1  0
 11 22  2  0
 12 13  2  0
 12 34  1  0
 13 35  1  0
 15 36  1  0
 19 37  1  0
 20 21  1  0
 20 38  1  0
 20 39  1  0
 21 40  1  0
 21 41  1  0
M  END
$$$$
