5EL_ref
     RDKit          3D

 62 66  0  0  1  0  0  0  0  0999 V2000
   55.3820  -14.5340   22.8860 C   0  0  0  0  0  0  0  0  0  0  0  0
   54.5640  -13.6640   23.5500 C   0  0  0  0  0  0  0  0  0  0  0  0
   54.8310  -13.2360   24.8380 C   0  0  0  0  0  0  0  0  0  0  0  0
   55.9250  -13.6910   25.5490 C   0  0  0  0  0  0  0  0  0  0  0  0
   56.7680  -14.5870   24.8950 C   0  0  0  0  0  0  0  0  0  0  0  0
   56.4840  -14.9860   23.5900 C   0  0  0  0  0  0  0  0  0  0  0  0
   57.3890  -15.8470   22.9650 C   0  0  0  0  0  0  0  0  0  0  0  0
   58.1850  -16.5520   22.4320 C   0  0  0  0  0  0  0  0  0  0  0  0
   59.1070  -17.4430   21.7300 C   0  0  2  0  0  0  0  0  0  0  0  0
   60.0050  -18.0950   22.7870 C   0  0  0  0  0  0  0  0  0  0  0  0
   61.3980  -17.8690   22.2130 N   0  0  1  0  0  0  0  0  0  0  0  0
   61.5790  -18.4520   20.8730 C   0  0  0  0  0  0  0  0  0  0  0  0
   60.6960  -17.6500   19.8580 C   0  0  0  0  0  0  0  0  0  0  0  0
   59.8600  -16.6710   20.6340 C   0  0  2  0  0  0  0  0  0  0  0  0
   60.7610  -15.7040   21.3040 C   0  0  0  0  0  0  0  0  0  0  0  0
   61.7270  -16.4410   22.2110 C   0  0  0  0  0  0  0  0  0  0  0  0
   58.3390  -18.4640   21.0730 O   0  0  0  0  0  0  0  0  0  0  0  0
   53.9960  -12.3430   25.4820 O   0  0  0  0  0  0  0  0  0  0  0  0
   52.6550  -12.4700   25.6760 C   0  0  0  0  0  0  0  0  0  0  0  0
   51.9940  -13.6940   25.5590 C   0  0  0  0  0  0  0  0  0  0  0  0
   50.6370  -13.7470   25.8030 C   0  0  0  0  0  0  0  0  0  0  0  0
   49.9870  -12.5940   26.1640 C   0  0  0  0  0  0  0  0  0  0  0  0
   50.6140  -11.3830   26.2990 C   0  0  0  0  0  0  0  0  0  0  0  0
   51.9810  -11.3230   26.0370 C   0  0  0  0  0  0  0  0  0  0  0  0
   48.5500  -12.6550   26.4750 C   0  0  0  0  0  0  0  0  0  0  0  0
   48.0470  -11.8340   27.2440 O   0  0  0  0  0  0  0  0  0  0  0  0
   47.8910  -13.7130   25.9170 N   0  0  0  0  0  0  0  0  0  0  0  0
   46.5490  -14.0720   26.3250 C   0  0  0  0  0  0  0  0  0  0  0  0
   45.5300  -13.2060   25.7480 C   0  0  0  0  0  0  0  0  0  0  0  0
   45.8630  -12.1160   24.9630 C   0  0  0  0  0  0  0  0  0  0  0  0
   44.8660  -11.2720   24.4930 C   0  0  0  0  0  0  0  0  0  0  0  0
   43.5600  -11.4980   24.7250 N   0  0  0  0  0  0  0  0  0  0  0  0
   43.2640  -12.6060   25.4530 C   0  0  0  0  0  0  0  0  0  0  0  0
   44.1960  -13.4710   26.0090 C   0  0  0  0  0  0  0  0  0  0  0  0
   55.1654  -14.8439   21.8724 H   0  0  0  0  0  0  0  0  0  0  0  0
   53.6802  -13.2984   23.0530 H   0  0  0  0  0  0  0  0  0  0  0  0
   56.1265  -13.3606   26.5568 H   0  0  0  0  0  0  0  0  0  0  0  0
   57.6351  -14.9710   25.4141 H   0  0  0  0  0  0  0  0  0  0  0  0
   59.8696  -19.1739   22.8901 H   0  0  0  0  0  0  0  0  0  0  0  0
   60.0166  -17.6467   23.7851 H   0  0  0  0  0  0  0  0  0  0  0  0
   62.0539  -18.3273   22.8307 H   0  0  0  0  0  0  0  0  0  0  0  0
   61.2677  -19.4957   20.9482 H   0  0  0  0  0  0  0  0  0  0  0  0
   62.6435  -18.4370   20.6503 H   0  0  0  0  0  0  0  0  0  0  0  0
   60.0870  -18.3280   19.2582 H   0  0  0  0  0  0  0  0  0  0  0  0
   61.3287  -17.1299   19.1403 H   0  0  0  0  0  0  0  0  0  0  0  0
   59.1768  -16.1545   19.9540 H   0  0  0  0  0  0  0  0  0  0  0  0
   60.2184  -14.9406   21.8617 H   0  0  0  0  0  0  0  0  0  0  0  0
   61.3249  -15.1436   20.5554 H   0  0  0  0  0  0  0  0  0  0  0  0
   62.7620  -16.3523   21.8751 H   0  0  0  0  0  0  0  0  0  0  0  0
   61.6778  -16.0946   23.2446 H   0  0  0  0  0  0  0  0  0  0  0  0
   57.6743  -18.0377   20.5082 H   0  0  0  0  0  0  0  0  0  0  0  0
   52.5295  -14.5891   25.2896 H   0  0  0  0  0  0  0  0  0  0  0  0
   50.1506  -14.7095   25.7233 H   0  0  0  0  0  0  0  0  0  0  0  0
   50.0919  -10.4844   26.6001 H   0  0  0  0  0  0  0  0  0  0  0  0
   52.5186  -10.3925   26.1360 H   0  0  0  0  0  0  0  0  0  0  0  0
   48.3226  -14.2538   25.1807 H   0  0  0  0  0  0  0  0  0  0  0  0
   46.4579  -14.0626   27.4101 H   0  0  0  0  0  0  0  0  0  0  0  0
   46.3605  -15.0982   26.0058 H   0  0  0  0  0  0  0  0  0  0  0  0
   46.8699  -11.8575   24.6799 H   0  0  0  0  0  0  0  0  0  0  0  0
   45.1075  -10.4050   23.8959 H   0  0  0  0  0  0  0  0  0  0  0  0
   42.2115  -12.7761   25.6284 H   0  0  0  0  0  0  0  0  0  0  0  0
   43.8868  -14.3115   26.6140 H   0  0  0  0  0  0  0  0  0  0  0  0
  1  2  2  0
  1  6  1  0
  1 35  1  0
  2  3  1  0
  2 36  1  0
  3  4  2  0
  3 18  1  0
  4  5  1  0
  4 37  1  0
  5  6  2  0
  5 38  1  0
  6  7  1  0
  7  8  3  0
  9  8  1  1
  9 10  1  0
  9 14  1  0
  9 17  1  0
 10 11  1  0
 10 39  1  0
 10 40  1  0
 11 12  1  0
 11 16  1  0
 11 41  1  1
 12 13  1  0
 12 42  1  0
 12 43  1  0
 13 14  1  0
 13 44  1  0
 13 45  1  0
 14 15  1  0
 14 46  1  6
 15 16  1  0
 15 47  1  0
 15 48  1  0
 16 49  1  0
 16 50  1  0
 17 51  1  0
 18 19  1  0
 19 20  2  0
 19 24  1  0
 20 21  1  0
 20 52  1  0
 21 22  2  0
 21 53  1  0
 22 23  1  0
 22 25  1  0
 23 24  2  0
 23 54  1  0
 24 55  1  0
 25 26  2  0
 25 27  1  0
 27 28  1  0
 27 56  1  0
 28 29  1  0
 28 57  1  0
 28 58  1  0
 29 30  2  0
 29 34  1  0
 30 31  1  0
 30 59  1  0
 31 32  2  0
 31 60  1  0
 32 33  1  0
 33 34  2  0
 33 61  1  0
 34 62  1  0
M  CHG  1  11   1
M  END
$$$$
