26U_ref
     RDKit          3D

 54 55  0  0  1  0  0  0  0  0999 V2000
   19.0120  -14.9240   23.2470 C   0  0  0  0  0  0  0  0  0  0  0  0
   19.4150  -14.5590   24.7030 C   0  0  0  0  0  0  0  0  0  0  0  0
   20.5980  -13.5750   24.9030 C   0  0  0  0  0  0  0  0  0  0  0  0
   21.9850  -14.1370   24.4860 C   0  0  0  0  0  0  0  0  0  0  0  0
   20.6740  -12.9550   26.3300 C   0  0  0  0  0  0  0  0  0  0  0  0
   18.3400  -13.8000   22.4840 C   0  0  0  0  0  0  0  0  0  0  0  0
   17.2650  -13.3520   22.8550 O   0  0  0  0  0  0  0  0  0  0  0  0
   18.8810  -13.2880   21.4270 N   0  0  0  0  0  0  0  0  0  0  0  0
   18.3780  -12.0150   20.9900 C   0  0  2  0  0  0  0  0  0  0  0  0
   16.9860  -12.1250   20.3640 C   0  0  0  0  0  0  0  0  0  0  0  0
   16.7040  -13.2170   19.9040 O   0  0  0  0  0  0  0  0  0  0  0  0
   19.4130  -11.7270   19.8710 C   0  0  0  0  0  0  0  0  0  0  0  0
   20.4230  -12.8830   19.8270 C   0  0  0  0  0  0  0  0  0  0  0  0
   20.1350  -13.8650   20.9650 C   0  0  0  0  0  0  0  0  0  0  0  0
   16.2750  -11.0630   20.3720 N   0  0  0  0  0  0  0  0  0  0  0  0
   14.9520  -11.2010   19.7600 C   0  0  0  0  0  0  0  0  0  0  0  0
   13.8720  -11.0980   20.8590 C   0  0  0  0  0  0  0  0  0  0  0  0
   13.3990  -12.2420   21.4860 C   0  0  0  0  0  0  0  0  0  0  0  0
   12.4290  -12.1800   22.4770 C   0  0  0  0  0  0  0  0  0  0  0  0
   11.9020  -10.9430   22.8680 C   0  0  0  0  0  0  0  0  0  0  0  0
   10.8360  -10.8950   23.9570 C   0  0  0  0  0  0  0  0  0  0  0  0
   10.2130  -11.9940   24.2030 N   0  0  0  0  0  0  0  0  0  0  0  0
   10.6300   -9.7750   24.5530 N   0  0  0  0  0  0  0  0  0  0  0  0
   12.3730   -9.7940   22.2420 C   0  0  0  0  0  0  0  0  0  0  0  0
   13.3500   -9.8530   21.2440 C   0  0  0  0  0  0  0  0  0  0  0  0
   18.2479  -15.6999   23.3138 H   0  0  0  0  0  0  0  0  0  0  0  0
   19.8331  -15.4439   22.7588 H   0  0  0  0  0  0  0  0  0  0  0  0
   19.6448  -15.4808   25.2395 H   0  0  0  0  0  0  0  0  0  0  0  0
   18.5351  -14.1629   25.2142 H   0  0  0  0  0  0  0  0  0  0  0  0
   20.3935  -12.7386   24.2371 H   0  0  0  0  0  0  0  0  0  0  0  0
   22.7479  -13.3573   24.5079 H   0  0  0  0  0  0  0  0  0  0  0  0
   22.3067  -14.9285   25.1637 H   0  0  0  0  0  0  0  0  0  0  0  0
   21.9779  -14.5578   23.4828 H   0  0  0  0  0  0  0  0  0  0  0  0
   21.3037  -12.0670   26.3409 H   0  0  0  0  0  0  0  0  0  0  0  0
   19.6968  -12.6650   26.6894 H   0  0  0  0  0  0  0  0  0  0  0  0
   21.0799  -13.6662   27.0502 H   0  0  0  0  0  0  0  0  0  0  0  0
   18.4165  -11.2552   21.7716 H   0  0  0  0  0  0  0  0  0  0  0  0
   19.9348  -10.7996   20.1065 H   0  0  0  0  0  0  0  0  0  0  0  0
   18.9627  -11.5865   18.8869 H   0  0  0  0  0  0  0  0  0  0  0  0
   21.4314  -12.4833   19.8888 H   0  0  0  0  0  0  0  0  0  0  0  0
   20.3442  -13.4008   18.8708 H   0  0  0  0  0  0  0  0  0  0  0  0
   20.0400  -14.8878   20.5950 H   0  0  0  0  0  0  0  0  0  0  0  0
   20.9247  -13.7878   21.7103 H   0  0  0  0  0  0  0  0  0  0  0  0
   16.5775  -10.1879   20.7812 H   0  0  0  0  0  0  0  0  0  0  0  0
   14.7506  -12.0981   19.1657 H   0  0  0  0  0  0  0  0  0  0  0  0
   14.7765  -10.4041   19.0595 H   0  0  0  0  0  0  0  0  0  0  0  0
   13.8000  -13.2064   21.2081 H   0  0  0  0  0  0  0  0  0  0  0  0
   12.1325  -13.1189   22.9212 H   0  0  0  0  0  0  0  0  0  0  0  0
    9.3991  -11.9642   24.8103 H   0  0  0  0  0  0  0  0  0  0  0  0
   10.4395  -12.8426   23.7030 H   0  0  0  0  0  0  0  0  0  0  0  0
    9.8139   -9.6860   25.1513 H   0  0  0  0  0  0  0  0  0  0  0  0
   11.1977   -8.9664   24.3363 H   0  0  0  0  0  0  0  0  0  0  0  0
   11.9922   -8.8168   22.4976 H   0  0  0  0  0  0  0  0  0  0  0  0
   13.7000   -8.9487   20.7699 H   0  0  0  0  0  0  0  0  0  0  0  0
  1  2  1  0
  1  6  1  0
  1 26  1  0
  1 27  1  0
  2  3  1  0
  2 28  1  0
  2 29  1  0
  3  4  1  0
  3  5  1  0
  3 30  1  0
  4 31  1  0
  4 32  1  0
  4 33  1  0
  5 34  1  0
  5 35  1  0
  5 36  1  0
  6  7  2  0
  6  8  1  0
  8  9  1  0
  8 14  1  0
  9 10  1  0
  9 12  1  0
  9 37  1  1
 10 11  2  0
 10 15  1  0
 12 13  1  0
 12 38  1  0
 12 39  1  0
 13 14  1  0
 13 40  1  0
 13 41  1  0
 14 42  1  0
 14 43  1  0
 15 16  1  0
 15 44  1  0
 16 17  1  0
 16 45  1  0
 16 46  1  0
 17 18  2  0
 17 25  1  0
 18 19  1  0
 18 47  1  0
 19 20  2  0
 19 48  1  0
 20 21  1  0
 20 24  1  0
 21 22  2  0
 21 23  1  0
 22 49  1  0
 22 50  1  0
 23 51  1  0
 23 52  1  0
 24 25  2  0
 24 53  1  0
 25 54  1  0
M  CHG  1  22   1
M  END
$$$$
