0WG_ref
     RDKit          3D

 41 43  0  0  1  0  0  0  0  0999 V2000
  -33.6650  -56.9170   45.3770 C   0  0  0  0  0  0  0  0  0  0  0  0
  -35.0320  -56.3770   45.4100 N   0  0  0  0  0  0  0  0  0  0  0  0
  -35.8790  -56.6990   46.4670 C   0  0  0  0  0  0  0  0  0  0  0  0
  -35.4680  -57.4940   47.4450 N   0  0  0  0  0  0  0  0  0  0  0  0
  -36.2490  -57.8370   48.4580 C   0  0  0  0  0  0  0  0  0  0  0  0
  -35.7400  -58.6740   49.4340 N   0  0  0  0  0  0  0  0  0  0  0  0
  -37.5590  -57.3730   48.5520 C   0  0  0  0  0  0  0  0  0  0  0  0
  -38.4190  -57.7950   49.7130 C   0  0  0  0  0  0  0  0  0  0  0  0
  -38.9190  -59.1470   49.4420 N   0  0  0  0  0  0  0  0  0  0  0  0
  -38.0660  -56.5270   47.5580 C   0  0  0  0  0  0  0  0  0  0  0  0
  -39.4760  -56.0570   47.6720 C   0  0  0  0  0  0  0  0  0  0  0  0
  -39.8120  -54.9490   48.4540 C   0  0  0  0  0  0  0  0  0  0  0  0
  -41.1360  -54.5490   48.5480 C   0  0  0  0  0  0  0  0  0  0  0  0
  -42.1330  -55.2390   47.8710 C   0  0  0  0  0  0  0  0  0  0  0  0
  -41.8120  -56.3400   47.0970 C   0  0  0  0  0  0  0  0  0  0  0  0
  -40.4940  -56.7500   47.0010 C   0  0  0  0  0  0  0  0  0  0  0  0
  -40.0690  -58.2520   45.9380 Br  0  0  0  0  0  0  0  0  0  0  0  0
  -37.1970  -56.1810   46.4820 C   0  0  0  0  0  0  0  0  0  0  0  0
  -37.5880  -55.3050   45.3610 C   0  0  0  0  0  0  0  0  0  0  0  0
  -38.6920  -54.8010   45.3230 O   0  0  0  0  0  0  0  0  0  0  0  0
  -36.6940  -55.0590   44.3670 N   0  0  0  0  0  0  0  0  0  0  0  0
  -37.0790  -54.1930   43.2420 C   0  0  0  0  0  0  0  0  0  0  0  0
  -35.4580  -55.5930   44.3990 C   0  0  0  0  0  0  0  0  0  0  0  0
  -34.6860  -55.3400   43.4900 O   0  0  0  0  0  0  0  0  0  0  0  0
  -33.0067  -56.4589   44.6377 H   0  0  0  0  0  0  0  0  0  0  0  0
  -33.1838  -56.7796   46.3460 H   0  0  0  0  0  0  0  0  0  0  0  0
  -33.6977  -57.9878   45.1734 H   0  0  0  0  0  0  0  0  0  0  0  0
  -36.3102  -58.9412   50.2240 H   0  0  0  0  0  0  0  0  0  0  0  0
  -34.7889  -59.0000   49.3461 H   0  0  0  0  0  0  0  0  0  0  0  0
  -39.3074  -57.1988   49.9180 H   0  0  0  0  0  0  0  0  0  0  0  0
  -37.8490  -57.8655   50.6315 H   0  0  0  0  0  0  0  0  0  0  0  0
  -39.4080  -59.4872   50.2672 H   0  0  0  0  0  0  0  0  0  0  0  0
  -39.5717  -59.1363   48.6720 H   0  0  0  0  0  0  0  0  0  0  0  0
  -38.1636  -59.7843   49.2337 H   0  0  0  0  0  0  0  0  0  0  0  0
  -39.0404  -54.3955   48.9543 H   0  0  0  0  0  0  0  0  0  0  0  0
  -41.4184  -53.7194   49.1729 H   0  0  0  0  0  0  0  0  0  0  0  0
  -43.1607  -54.9495   47.9677 H   0  0  0  0  0  0  0  0  0  0  0  0
  -42.5817  -56.8846   46.5753 H   0  0  0  0  0  0  0  0  0  0  0  0
  -36.3728  -54.1716   42.4117 H   0  0  0  0  0  0  0  0  0  0  0  0
  -38.0297  -54.5234   42.8231 H   0  0  0  0  0  0  0  0  0  0  0  0
  -37.2264  -53.1692   43.5808 H   0  0  0  0  0  0  0  0  0  0  0  0
  1  2  1  0
  1 25  1  0
  1 26  1  0
  1 27  1  0
  2  3  1  0
  2 23  1  0
  3  4  2  0
  3 18  1  0
  4  5  1  0
  5  6  1  0
  5  7  2  0
  6 28  1  0
  6 29  1  0
  7  8  1  0
  7 10  1  0
  8  9  1  0
  8 30  1  0
  8 31  1  0
  9 32  1  0
  9 33  1  0
  9 34  1  0
 10 11  1  0
 10 18  2  0
 11 12  2  0
 11 16  1  0
 12 13  1  0
 12 35  1  0
 13 14  2  0
 13 36  1  0
 14 15  1  0
 14 37  1  0
 15 16  2  0
 15 38  1  0
 16 17  1  0
 18 19  1  0
 19 20  2  0
 19 21  1  0
 21 22  1  0
 21 23  1  0
 22 39  1  0
 22 40  1  0
 22 41  1  0
 23 24  2  0
M  CHG  1   9   1
M  END
$$$$
