12a
  PyMOL2.4          3D                             0

 40 41  0  0  1  0  0  0  0  0999 V2000
   45.3820   39.5470   37.5840 C   0  0  0  0  0  0  0  0  0  0  0  0
   44.8630   38.3480   36.9180 N   0  0  1  0  0  0  0  0  0  0  0  0
   45.7660   37.6640   36.0020 C   0  0  0  0  0  0  0  0  0  0  0  0
   46.2830   38.6560   34.9450 C   0  0  0  0  0  0  0  0  0  0  0  0
   46.7970   39.9210   35.5400 N   0  3  0  0  0  0  0  0  0  0  0  0
   45.8780   40.5440   36.5380 C   0  0  0  0  0  0  0  0  0  0  0  0
   43.8130   37.6330   37.5260 C   0  0  0  0  0  0  0  0  0  0  0  0
   43.7830   37.4430   38.9350 C   0  0  0  0  0  0  0  0  0  0  0  0
   42.6820   36.8070   39.5410 C   0  0  0  0  0  0  0  0  0  0  0  0
   41.5970   36.4080   38.7620 C   0  0  0  0  0  0  0  0  0  0  0  0
   41.6120   36.5590   37.3660 C   0  0  0  0  0  0  0  0  0  0  0  0
   42.7300   37.1550   36.7420 C   0  0  0  0  0  0  0  0  0  0  0  0
   40.4050   36.0900   36.5700 C   0  0  0  0  0  0  0  0  0  0  0  0
   39.4780   37.2440   36.1690 C   0  0  0  0  0  0  0  0  0  0  0  0
   47.2040   40.8850   34.4920 C   0  0  0  0  0  0  0  0  0  0  0  0
   44.8050   37.8540   39.7450 O   0  0  0  0  0  0  0  0  0  0  0  0
   46.0860   37.4020   39.3440 C   0  0  0  0  0  0  0  0  0  0  0  0
   42.6330   36.3410   41.2000 Cl  0  0  0  0  0  0  0  0  0  0  0  0
   46.2065   39.2694   38.2407 H   0  0  0  0  0  0  0  0  0  0  0  0
   44.5896   40.0055   38.1756 H   0  0  0  0  0  0  0  0  0  0  0  0
   45.2344   36.8510   35.5076 H   0  0  0  0  0  0  0  0  0  0  0  0
   46.6088   37.2561   36.5600 H   0  0  0  0  0  0  0  0  0  0  0  0
   45.4825   38.8857   34.2417 H   0  0  0  0  0  0  0  0  0  0  0  0
   47.0726   38.1836   34.3606 H   0  0  0  0  0  0  0  0  0  0  0  0
   47.6382   39.6767   36.0428 H   0  0  0  0  0  0  0  0  0  0  0  0
   46.3891   41.3677   37.0364 H   0  0  0  0  0  0  0  0  0  0  0  0
   45.0240   40.9811   36.0206 H   0  0  0  0  0  0  0  0  0  0  0  0
   40.7260   35.9745   39.2309 H   0  0  0  0  0  0  0  0  0  0  0  0
   42.7602   37.2468   35.6663 H   0  0  0  0  0  0  0  0  0  0  0  0
   39.8445   35.3623   37.1569 H   0  0  0  0  0  0  0  0  0  0  0  0
   40.7422   35.5682   35.6744 H   0  0  0  0  0  0  0  0  0  0  0  0
   38.6330   36.8520   35.6029 H   0  0  0  0  0  0  0  0  0  0  0  0
   39.1129   37.7457   37.0652 H   0  0  0  0  0  0  0  0  0  0  0  0
   40.0283   37.9557   35.5535 H   0  0  0  0  0  0  0  0  0  0  0  0
   47.5741   41.7970   34.9604 H   0  0  0  0  0  0  0  0  0  0  0  0
   47.9919   40.4460   33.8800 H   0  0  0  0  0  0  0  0  0  0  0  0
   46.3460   41.1226   33.8632 H   0  0  0  0  0  0  0  0  0  0  0  0
   46.8374   37.7733   40.0408 H   0  0  0  0  0  0  0  0  0  0  0  0
   46.1024   36.3121   39.3396 H   0  0  0  0  0  0  0  0  0  0  0  0
   46.3054   37.7722   38.3425 H   0  0  0  0  0  0  0  0  0  0  0  0
  1  2  1  0  0  0  0
  1  6  1  0  0  0  0
  1 19  1  0  0  0  0
  1 20  1  0  0  0  0
  2  3  1  0  0  0  0
  2  7  1  0  0  0  0
  3  4  1  0  0  0  0
  3 21  1  0  0  0  0
  3 22  1  0  0  0  0
  4  5  1  0  0  0  0
  4 23  1  0  0  0  0
  4 24  1  0  0  0  0
  5  6  1  0  0  0  0
  5 15  1  0  0  0  0
  5 25  1  0  0  0  0
  6 26  1  0  0  0  0
  6 27  1  0  0  0  0
  7  8  1  0  0  0  0
  7 12  2  0  0  0  0
  8  9  2  0  0  0  0
  8 16  1  0  0  0  0
  9 10  1  0  0  0  0
  9 18  1  0  0  0  0
 10 11  2  0  0  0  0
 10 28  1  0  0  0  0
 11 12  1  0  0  0  0
 11 13  1  0  0  0  0
 12 29  1  0  0  0  0
 13 14  1  0  0  0  0
 13 30  1  0  0  0  0
 13 31  1  0  0  0  0
 14 32  1  0  0  0  0
 14 33  1  0  0  0  0
 14 34  1  0  0  0  0
 15 35  1  0  0  0  0
 15 36  1  0  0  0  0
 15 37  1  0  0  0  0
 16 17  1  0  0  0  0
 17 38  1  0  0  0  0
 17 39  1  0  0  0  0
 17 40  1  0  0  0  0
M  END
$$$$
