TXF_ref
     RDKit          3D

 63 65  0  0  1  0  0  0  0  0999 V2000
   12.2380  -14.2210   84.5910 O   0  0  0  0  0  0  0  0  0  0  0  0
   12.9420  -13.0760   84.8130 C   0  0  0  0  0  0  0  0  0  0  0  0
   14.3240  -13.0840   84.6780 C   0  0  0  0  0  0  0  0  0  0  0  0
   15.0560  -11.9290   84.9110 C   0  0  0  0  0  0  0  0  0  0  0  0
   12.2890  -11.9110   85.1790 C   0  0  0  0  0  0  0  0  0  0  0  0
   13.0220  -10.7470   85.4000 C   0  0  0  0  0  0  0  0  0  0  0  0
   14.4130  -10.7320   85.2510 C   0  0  0  0  0  0  0  0  0  0  0  0
   15.1780   -9.4520   85.5400 C   0  0  0  0  0  0  0  0  0  0  0  0
   16.1660   -8.9690   84.7910 C   0  0  0  0  0  0  0  0  0  0  0  0
   16.8700   -7.7010   85.1650 C   0  0  0  0  0  0  0  0  0  0  0  0
   16.8160   -6.5890   84.3340 C   0  0  0  0  0  0  0  0  0  0  0  0
   17.4980   -5.4290   84.6960 C   0  0  0  0  0  0  0  0  0  0  0  0
   18.2370   -5.3800   85.8780 C   0  0  0  0  0  0  0  0  0  0  0  0
   18.3030   -6.4940   86.7020 C   0  0  0  0  0  0  0  0  0  0  0  0
   17.6290   -7.6570   86.3430 C   0  0  0  0  0  0  0  0  0  0  0  0
   16.6470   -9.6510   83.5310 C   0  0  0  0  0  0  0  0  0  0  0  0
   17.9910  -10.3200   83.6890 C   0  0  0  0  0  0  0  0  0  0  0  0
   18.7270  -10.2770   82.3610 C   0  0  0  0  0  0  0  0  0  0  0  0
   18.0410  -10.9690   81.3250 O   0  0  0  0  0  0  0  0  0  0  0  0
   14.6820   -8.7580   86.7680 C   0  0  0  0  0  0  0  0  0  0  0  0
   14.2090   -7.4480   86.7040 C   0  0  0  0  0  0  0  0  0  0  0  0
   13.6920   -6.8430   87.8510 C   0  0  0  0  0  0  0  0  0  0  0  0
   14.6000   -9.4750   87.9590 C   0  0  0  0  0  0  0  0  0  0  0  0
   14.0880   -8.8760   89.0940 C   0  0  0  0  0  0  0  0  0  0  0  0
   13.6330   -7.5610   89.0510 C   0  0  0  0  0  0  0  0  0  0  0  0
   13.1220   -6.9650   90.1760 O   0  0  0  0  0  0  0  0  0  0  0  0
   12.4650   -7.7210   91.1970 C   0  0  0  0  0  0  0  0  0  0  0  0
   12.2130   -6.8460   92.4180 C   0  0  0  0  0  0  0  0  0  0  0  0
   11.0630   -5.9630   92.1890 N   0  0  0  0  0  0  0  0  0  0  0  0
   11.3510   -4.9460   91.1540 C   0  0  0  0  0  0  0  0  0  0  0  0
   10.6680   -5.3650   93.4840 C   0  0  0  0  0  0  0  0  0  0  0  0
   11.3082  -14.1426   84.8629 H   0  0  0  0  0  0  0  0  0  0  0  0
   14.8401  -13.9991   84.4287 H   0  0  0  0  0  0  0  0  0  0  0  0
   16.1275  -11.9907   84.8667 H   0  0  0  0  0  0  0  0  0  0  0  0
   11.2157  -11.8743   85.2798 H   0  0  0  0  0  0  0  0  0  0  0  0
   12.4941   -9.8376   85.6436 H   0  0  0  0  0  0  0  0  0  0  0  0
   16.2519   -6.6130   83.4138 H   0  0  0  0  0  0  0  0  0  0  0  0
   17.4599   -4.5623   84.0530 H   0  0  0  0  0  0  0  0  0  0  0  0
   18.7709   -4.4819   86.1504 H   0  0  0  0  0  0  0  0  0  0  0  0
   18.8980   -6.4645   87.5976 H   0  0  0  0  0  0  0  0  0  0  0  0
   17.6967   -8.5272   86.9789 H   0  0  0  0  0  0  0  0  0  0  0  0
   16.6676   -8.8887   82.7499 H   0  0  0  0  0  0  0  0  0  0  0  0
   15.9225  -10.3529   83.1752 H   0  0  0  0  0  0  0  0  0  0  0  0
   17.9206  -11.3473   84.0405 H   0  0  0  0  0  0  0  0  0  0  0  0
   18.6000   -9.7947   84.4258 H   0  0  0  0  0  0  0  0  0  0  0  0
   19.6872  -10.7591   82.4813 H   0  0  0  0  0  0  0  0  0  0  0  0
   18.8731   -9.2540   82.0136 H   0  0  0  0  0  0  0  0  0  0  0  0
   18.6084  -10.9622   80.5416 H   0  0  0  0  0  0  0  0  0  0  0  0
   14.2336   -6.8934   85.7771 H   0  0  0  0  0  0  0  0  0  0  0  0
   13.3392   -5.8258   87.8099 H   0  0  0  0  0  0  0  0  0  0  0  0
   14.9375  -10.5001   88.0065 H   0  0  0  0  0  0  0  0  0  0  0  0
   13.9965   -9.4513   89.9858 H   0  0  0  0  0  0  0  0  0  0  0  0
   13.0947   -8.5327   91.5569 H   0  0  0  0  0  0  0  0  0  0  0  0
   11.5443   -8.1710   90.8200 H   0  0  0  0  0  0  0  0  0  0  0  0
   13.0559   -6.2319   92.7283 H   0  0  0  0  0  0  0  0  0  0  0  0
   11.9330   -7.4977   93.2493 H   0  0  0  0  0  0  0  0  0  0  0  0
   10.2736   -6.5288   91.8889 H   0  0  0  0  0  0  0  0  0  0  0  0
   10.8244   -4.0152   91.3719 H   0  0  0  0  0  0  0  0  0  0  0  0
   12.4189   -4.7943   91.0345 H   0  0  0  0  0  0  0  0  0  0  0  0
   10.9523   -5.3796   90.2368 H   0  0  0  0  0  0  0  0  0  0  0  0
    9.7723   -4.7691   93.3001 H   0  0  0  0  0  0  0  0  0  0  0  0
   10.4303   -6.1637   94.1894 H   0  0  0  0  0  0  0  0  0  0  0  0
   11.4885   -4.7416   93.8407 H   0  0  0  0  0  0  0  0  0  0  0  0
  1  2  1  0
  1 32  1  0
  2  3  2  0
  2  5  1  0
  3  4  1  0
  3 33  1  0
  4  7  2  0
  4 34  1  0
  5  6  2  0
  5 35  1  0
  6  7  1  0
  6 36  1  0
  7  8  1  0
  8  9  2  0
  8 20  1  0
  9 10  1  0
  9 16  1  0
 10 11  2  0
 10 15  1  0
 11 12  1  0
 11 37  1  0
 12 13  2  0
 12 38  1  0
 13 14  1  0
 13 39  1  0
 14 15  2  0
 14 40  1  0
 15 41  1  0
 16 17  1  0
 16 42  1  0
 16 43  1  0
 17 18  1  0
 17 44  1  0
 17 45  1  0
 18 19  1  0
 18 46  1  0
 18 47  1  0
 19 48  1  0
 20 21  2  0
 20 23  1  0
 21 22  1  0
 21 49  1  0
 22 25  2  0
 22 50  1  0
 23 24  2  0
 23 51  1  0
 24 25  1  0
 24 52  1  0
 25 26  1  0
 26 27  1  0
 27 28  1  0
 27 53  1  0
 27 54  1  0
 28 29  1  0
 28 55  1  0
 28 56  1  0
 29 30  1  0
 29 31  1  0
 29 57  1  0
 30 58  1  0
 30 59  1  0
 30 60  1  0
 31 61  1  0
 31 62  1  0
 31 63  1  0
M  CHG  1  29   1
M  END
$$$$
