9NH_ref
     RDKit          3D

 75 79  0  0  1  0  0  0  0  0999 V2000
   19.7580    3.5410   19.8200 C   0  0  0  0  0  0  0  0  0  0  0  0
   17.9380    1.4070   16.4560 C   0  0  0  0  0  0  0  0  0  0  0  0
   20.9130    4.8100   18.1490 C   0  0  0  0  0  0  0  0  0  0  0  0
   14.7510   -5.7290   14.2800 N   0  0  0  0  0  0  0  0  0  0  0  0
    7.6060   -8.7440   11.3190 C   0  0  0  0  0  0  0  0  0  0  0  0
    6.5610   -8.8180   10.3370 C   0  0  0  0  0  0  0  0  0  0  0  0
    6.9020   -8.7700    8.9420 C   0  0  0  0  0  0  0  0  0  0  0  0
    8.2740   -8.6490    8.5090 C   0  0  0  0  0  0  0  0  0  0  0  0
    9.2810   -8.5820    9.5520 C   0  0  0  0  0  0  0  0  0  0  0  0
   12.8290   -6.6190   13.1900 C   0  0  0  0  0  0  0  0  0  0  0  0
   13.9260   -6.7880   14.0710 C   0  0  0  0  0  0  0  0  0  0  0  0
    8.6800   -8.5810    7.0250 C   0  0  0  0  0  0  0  0  0  0  0  0
   14.1540   -8.0490   14.7320 C   0  0  0  0  0  0  0  0  0  0  0  0
   15.3390   -8.1580   15.6400 C   0  0  0  0  0  0  0  0  0  0  0  0
   16.4360   -3.4860   14.7090 C   0  0  0  0  0  0  0  0  0  0  0  0
   18.3240   -2.3820   14.0540 C   0  0  0  0  0  0  0  0  0  0  0  0
   15.2130   -2.5220   16.4890 C   0  0  0  0  0  0  0  0  0  0  0  0
   13.2950   -9.2120   14.5530 C   0  0  0  0  0  0  0  0  0  0  0  0
   11.9580   -7.7510   12.9840 C   0  0  0  0  0  0  0  0  0  0  0  0
   15.8140   -5.5530   13.4730 C   0  0  0  0  0  0  0  0  0  0  0  0
   20.4920    1.4520   16.0360 C   0  0  0  0  0  0  0  0  0  0  0  0
   19.0780   -0.2210   14.9330 C   0  0  0  0  0  0  0  0  0  0  0  0
   12.1750   -9.0510   13.6580 C   0  0  0  0  0  0  0  0  0  0  0  0
   10.8430   -7.5340   12.0170 C   0  0  0  0  0  0  0  0  0  0  0  0
    9.9160   -8.5310   11.9460 N   0  0  0  0  0  0  0  0  0  0  0  0
    8.9790   -8.6240   10.9480 C   0  0  0  0  0  0  0  0  0  0  0  0
    7.6230   -8.7210    6.2490 F   0  0  0  0  0  0  0  0  0  0  0  0
    9.5020   -9.6040    6.7670 F   0  0  0  0  0  0  0  0  0  0  0  0
    9.2900   -7.3990    6.7540 F   0  0  0  0  0  0  0  0  0  0  0  0
   18.6700   -3.3050   13.1440 N   0  0  0  0  0  0  0  0  0  0  0  0
   17.8930   -4.3660   12.9690 C   0  0  0  0  0  0  0  0  0  0  0  0
   16.7150   -4.4750   13.7660 C   0  0  0  0  0  0  0  0  0  0  0  0
   17.2330   -2.4520   14.8440 N   0  0  0  0  0  0  0  0  0  0  0  0
   19.1220   -1.3010   14.0840 N   0  0  0  0  0  0  0  0  0  0  0  0
   10.5520   -8.4690    9.2270 F   0  0  0  0  0  0  0  0  0  0  0  0
   16.0150   -6.2550   12.5000 O   0  0  0  0  0  0  0  0  0  0  0  0
   10.7770   -6.5320   11.3110 O   0  0  0  0  0  0  0  0  0  0  0  0
   15.3690   -3.5760   15.5370 O   0  0  0  0  0  0  0  0  0  0  0  0
   17.8560    0.3060   15.5740 C   0  0  0  0  0  0  0  0  0  0  0  0
   19.2670    1.9490   16.6610 C   0  0  0  0  0  0  0  0  0  0  0  0
   20.3850    0.3380   15.1480 C   0  0  0  0  0  0  0  0  0  0  0  0
   19.9790    4.9220   19.3120 N   0  0  0  0  0  0  0  0  0  0  0  0
   20.0920    4.2150   17.0130 C   0  0  0  0  0  0  0  0  0  0  0  0
   19.3620    3.0120   17.4910 N   0  0  0  0  0  0  0  0  0  0  0  0
   18.7520    2.9650   18.8430 C   0  0  0  0  0  0  0  0  0  0  0  0
   19.3210    3.6642   20.8117 H   0  0  0  0  0  0  0  0  0  0  0  0
   20.6975    2.9895   19.9094 H   0  0  0  0  0  0  0  0  0  0  0  0
   17.0568    1.8190   16.9265 H   0  0  0  0  0  0  0  0  0  0  0  0
   21.7990    4.2331   18.4241 H   0  0  0  0  0  0  0  0  0  0  0  0
   21.2147    5.8342   17.9261 H   0  0  0  0  0  0  0  0  0  0  0  0
   14.5764   -5.0974   15.0498 H   0  0  0  0  0  0  0  0  0  0  0  0
    7.3304   -8.7339   12.3623 H   0  0  0  0  0  0  0  0  0  0  0  0
    5.5330   -8.9333   10.6299 H   0  0  0  0  0  0  0  0  0  0  0  0
    6.1118   -8.8421    8.2104 H   0  0  0  0  0  0  0  0  0  0  0  0
   12.6689   -5.6681   12.6986 H   0  0  0  0  0  0  0  0  0  0  0  0
   15.4348   -9.1555   16.0701 H   0  0  0  0  0  0  0  0  0  0  0  0
   16.2630   -7.9449   15.1081 H   0  0  0  0  0  0  0  0  0  0  0  0
   15.2624   -7.4430   16.4601 H   0  0  0  0  0  0  0  0  0  0  0  0
   14.3298   -2.7179   17.0971 H   0  0  0  0  0  0  0  0  0  0  0  0
   16.0621   -2.4274   17.1676 H   0  0  0  0  0  0  0  0  0  0  0  0
   15.0405   -1.5612   16.0004 H   0  0  0  0  0  0  0  0  0  0  0  0
   13.4786  -10.1253   15.0886 H   0  0  0  0  0  0  0  0  0  0  0  0
   21.4562    1.8978   16.2315 H   0  0  0  0  0  0  0  0  0  0  0  0
   11.5499   -9.9078   13.4658 H   0  0  0  0  0  0  0  0  0  0  0  0
    9.8296   -9.1733   12.7279 H   0  0  0  0  0  0  0  0  0  0  0  0
   18.1851   -5.0756   12.2066 H   0  0  0  0  0  0  0  0  0  0  0  0
   19.9141   -1.3261   13.4559 H   0  0  0  0  0  0  0  0  0  0  0  0
   16.8804   -0.1009   15.3649 H   0  0  0  0  0  0  0  0  0  0  0  0
   21.2604   -0.0416   14.6498 H   0  0  0  0  0  0  0  0  0  0  0  0
   20.4072    5.4838   20.0347 H   0  0  0  0  0  0  0  0  0  0  0  0
   19.1078    5.3594   19.0452 H   0  0  0  0  0  0  0  0  0  0  0  0
   20.7289    4.0135   16.1510 H   0  0  0  0  0  0  0  0  0  0  0  0
   19.3550    4.9408   16.6638 H   0  0  0  0  0  0  0  0  0  0  0  0
   17.8115    3.5200   18.8446 H   0  0  0  0  0  0  0  0  0  0  0  0
   18.5043    1.9398   19.1242 H   0  0  0  0  0  0  0  0  0  0  0  0
  1 42  1  0
  1 45  1  0
  1 46  1  0
  1 47  1  0
  2 39  2  0
  2 40  1  0
  2 48  1  0
  3 42  1  0
  3 43  1  0
  3 49  1  0
  3 50  1  0
  4 11  1  0
  4 20  1  0
  4 51  1  0
  5  6  2  0
  5 26  1  0
  5 52  1  0
  6  7  1  0
  6 53  1  0
  7  8  2  0
  7 54  1  0
  8  9  1  0
  8 12  1  0
  9 26  2  0
  9 35  1  0
 10 11  2  0
 10 19  1  0
 10 55  1  0
 11 13  1  0
 12 27  1  0
 12 28  1  0
 12 29  1  0
 13 14  1  0
 13 18  2  0
 14 56  1  0
 14 57  1  0
 14 58  1  0
 15 32  2  0
 15 33  1  0
 15 38  1  0
 16 30  1  0
 16 33  2  0
 16 34  1  0
 17 38  1  0
 17 59  1  0
 17 60  1  0
 17 61  1  0
 18 23  1  0
 18 62  1  0
 19 23  2  0
 19 24  1  0
 20 32  1  0
 20 36  2  0
 21 40  2  0
 21 41  1  0
 21 63  1  0
 22 34  1  0
 22 39  1  0
 22 41  2  0
 23 64  1  0
 24 25  1  0
 24 37  2  0
 25 26  1  0
 25 65  1  0
 30 31  2  0
 31 32  1  0
 31 66  1  0
 34 67  1  0
 39 68  1  0
 40 44  1  0
 41 69  1  0
 42 70  1  0
 42 71  1  0
 43 44  1  0
 43 72  1  0
 43 73  1  0
 44 45  1  0
 45 74  1  0
 45 75  1  0
M  CHG  1  42   1
M  END
$$$$
