49J_ref
     RDKit          3D

 42 45  0  0  1  0  0  0  0  0999 V2000
   30.7860   84.7890  -90.3530 C   0  0  0  0  0  0  0  0  0  0  0  0
   30.6300   85.2930  -88.9700 C   0  0  0  0  0  0  0  0  0  0  0  0
   29.2550   85.0000  -88.4910 O   0  0  0  0  0  0  0  0  0  0  0  0
   28.4720   84.1840  -89.3000 C   0  0  0  0  0  0  0  0  0  0  0  0
   28.2600   85.0190  -90.5510 C   0  0  0  0  0  0  0  0  0  0  0  0
   29.5940   85.3090  -91.1010 N   0  0  0  0  0  0  0  0  0  0  0  0
   29.7630   86.0420  -92.1910 C   0  0  0  0  0  0  0  0  0  0  0  0
   31.1870   86.3070  -92.8260 S   0  0  0  0  0  0  0  0  0  0  0  0
   30.7040   87.2000  -94.0190 N   0  0  0  0  0  0  0  0  0  0  0  0
   29.3620   87.3350  -93.9310 C   0  0  0  0  0  0  0  0  0  0  0  0
   28.6010   88.0450  -94.7630 C   0  0  0  0  0  0  0  0  0  0  0  0
   28.8160   86.6710  -92.8830 C   0  0  0  0  0  0  0  0  0  0  0  0
   27.4860   86.7220  -92.6700 N   0  0  0  0  0  0  0  0  0  0  0  0
   26.6570   87.4620  -93.5440 C   0  0  0  0  0  0  0  0  0  0  0  0
   27.2240   88.1270  -94.6330 C   0  0  0  0  0  0  0  0  0  0  0  0
   26.4680   88.9390  -95.5180 C   0  0  0  0  0  0  0  0  0  0  0  0
   27.0800   90.0310  -96.1830 C   0  0  0  0  0  0  0  0  0  0  0  0
   25.0930   88.7430  -95.6970 C   0  0  0  0  0  0  0  0  0  0  0  0
   24.3670   89.5770  -96.5570 C   0  0  0  0  0  0  0  0  0  0  0  0
   25.0010   90.6310  -97.1970 C   0  0  0  0  0  0  0  0  0  0  0  0
   24.3830   91.4750  -98.0210 N   0  0  0  0  0  0  0  0  0  0  0  0
   26.3440   90.8620  -97.0340 C   0  0  0  0  0  0  0  0  0  0  0  0
   26.7920   91.9530  -97.7590 O   0  0  0  0  0  0  0  0  0  0  0  0
   28.1990   92.2530  -97.8160 C   0  0  0  0  0  0  0  0  0  0  0  0
   30.7867   83.6995  -90.3961 H   0  0  0  0  0  0  0  0  0  0  0  0
   31.7638   85.0361  -90.7407 H   0  0  0  0  0  0  0  0  0  0  0  0
   30.8085   86.3680  -88.9143 H   0  0  0  0  0  0  0  0  0  0  0  0
   31.3406   84.8133  -88.2993 H   0  0  0  0  0  0  0  0  0  0  0  0
   27.5133   84.0872  -88.8028 H   0  0  0  0  0  0  0  0  0  0  0  0
   28.8768   83.1837  -89.4661 H   0  0  0  0  0  0  0  0  0  0  0  0
   27.7412   85.9354  -90.2725 H   0  0  0  0  0  0  0  0  0  0  0  0
   27.6621   84.4542  -91.2677 H   0  0  0  0  0  0  0  0  0  0  0  0
   29.0975   88.5218  -95.5944 H   0  0  0  0  0  0  0  0  0  0  0  0
   25.6038   87.4919  -93.3081 H   0  0  0  0  0  0  0  0  0  0  0  0
   28.1212   90.2703  -96.0390 H   0  0  0  0  0  0  0  0  0  0  0  0
   24.5712   87.9338  -95.2079 H   0  0  0  0  0  0  0  0  0  0  0  0
   23.3104   89.4035  -96.7019 H   0  0  0  0  0  0  0  0  0  0  0  0
   24.9584   92.1100  -98.5563 H   0  0  0  0  0  0  0  0  0  0  0  0
   23.4163   91.3152  -98.2649 H   0  0  0  0  0  0  0  0  0  0  0  0
   28.3789   93.0428  -98.5449 H   0  0  0  0  0  0  0  0  0  0  0  0
   28.5590   92.6003  -96.8464 H   0  0  0  0  0  0  0  0  0  0  0  0
   28.7871   91.3852  -98.1095 H   0  0  0  0  0  0  0  0  0  0  0  0
  1  2  1  0
  1  6  1  0
  1 25  1  0
  1 26  1  0
  2  3  1  0
  2 27  1  0
  2 28  1  0
  3  4  1  0
  4  5  1  0
  4 29  1  0
  4 30  1  0
  5  6  1  0
  5 31  1  0
  5 32  1  0
  6  7  1  0
  7  8  1  0
  7 12  2  0
  8  9  1  0
  9 10  2  0
 10 11  1  0
 10 12  1  0
 11 15  2  0
 11 33  1  0
 12 13  1  0
 13 14  2  0
 14 15  1  0
 14 34  1  0
 15 16  1  0
 16 17  2  0
 16 18  1  0
 17 22  1  0
 17 35  1  0
 18 19  2  0
 18 36  1  0
 19 20  1  0
 19 37  1  0
 20 21  1  0
 20 22  2  0
 21 38  1  0
 21 39  1  0
 22 23  1  0
 23 24  1  0
 24 40  1  0
 24 41  1  0
 24 42  1  0
M  END
$$$$
