DYK_ref
     RDKit          3D

 59 63  0  0  1  0  0  0  0  0999 V2000
    1.5100   -3.9800   53.1740 C   0  0  0  0  0  0  0  0  0  0  0  0
    2.6870   -3.8130   52.3120 N   0  0  1  0  0  0  0  0  0  0  0  0
    6.2150   -4.7410   52.6610 O   0  0  0  0  0  0  0  0  0  0  0  0
    3.6950   -2.9800   52.9710 C   0  0  0  0  0  0  0  0  0  0  0  0
   10.6190   -2.4560   55.2000 N   0  0  0  0  0  0  0  0  0  0  0  0
    8.3600   -3.0100   56.5320 O   0  0  0  0  0  0  0  0  0  0  0  0
    4.8950   -2.7270   52.0490 C   0  0  0  0  0  0  0  0  0  0  0  0
   12.6720   -1.4290   55.5940 N   0  0  0  0  0  0  0  0  0  0  0  0
    5.4910   -4.0420   51.5790 C   0  0  2  0  0  0  0  0  0  0  0  0
   12.4610   -3.3250   54.1240 N   0  0  0  0  0  0  0  0  0  0  0  0
    4.4360   -4.9590   50.9950 C   0  0  0  0  0  0  0  0  0  0  0  0
   15.7300   -5.4660   51.6780 N   0  0  0  0  0  0  0  0  0  0  0  0
    3.2660   -5.1130   51.9710 C   0  0  0  0  0  0  0  0  0  0  0  0
   12.7640   -7.4830   50.6990 N   0  0  0  0  0  0  0  0  0  0  0  0
    7.3560   -4.1680   53.1860 C   0  0  0  0  0  0  0  0  0  0  0  0
    8.5440   -3.9600   52.4970 C   0  0  0  0  0  0  0  0  0  0  0  0
    9.6250   -3.3810   53.1430 C   0  0  0  0  0  0  0  0  0  0  0  0
    9.5530   -3.0690   54.5000 C   0  0  0  0  0  0  0  0  0  0  0  0
    8.3340   -3.3100   55.1970 C   0  0  0  0  0  0  0  0  0  0  0  0
    7.2550   -3.8830   54.5410 C   0  0  0  0  0  0  0  0  0  0  0  0
    7.2150   -3.3580   57.3240 C   0  0  0  0  0  0  0  0  0  0  0  0
   11.9650   -2.3960   54.9630 C   0  0  0  0  0  0  0  0  0  0  0  0
   13.9870   -1.4190   55.3340 C   0  0  0  0  0  0  0  0  0  0  0  0
   14.6030   -2.3220   54.4860 C   0  0  0  0  0  0  0  0  0  0  0  0
   13.7830   -3.2760   53.8910 C   0  0  0  0  0  0  0  0  0  0  0  0
   14.3220   -4.2770   52.9690 C   0  0  0  0  0  0  0  0  0  0  0  0
   15.6230   -4.4180   52.5540 C   0  0  0  0  0  0  0  0  0  0  0  0
   14.4890   -6.0350   51.4910 C   0  0  0  0  0  0  0  0  0  0  0  0
   13.5640   -5.3210   52.2780 C   0  0  0  0  0  0  0  0  0  0  0  0
   12.2260   -5.7130   52.2580 C   0  0  0  0  0  0  0  0  0  0  0  0
   11.8910   -6.7930   51.4530 C   0  0  0  0  0  0  0  0  0  0  0  0
   14.0500   -7.1070   50.7150 C   0  0  0  0  0  0  0  0  0  0  0  0
    0.7772   -4.5754   52.6263 H   0  0  0  0  0  0  0  0  0  0  0  0
    1.8067   -4.4757   54.1013 H   0  0  0  0  0  0  0  0  0  0  0  0
    1.0997   -2.9880   53.3723 H   0  0  0  0  0  0  0  0  0  0  0  0
    2.4036   -3.3540   51.4567 H   0  0  0  0  0  0  0  0  0  0  0  0
    4.0011   -3.4717   53.8980 H   0  0  0  0  0  0  0  0  0  0  0  0
    3.2179   -2.0318   53.2279 H   0  0  0  0  0  0  0  0  0  0  0  0
   10.3166   -1.9163   55.9972 H   0  0  0  0  0  0  0  0  0  0  0  0
    5.6482   -2.0830   52.4997 H   0  0  0  0  0  0  0  0  0  0  0  0
    4.5299   -2.1998   51.1719 H   0  0  0  0  0  0  0  0  0  0  0  0
    6.2506   -3.8306   50.8657 H   0  0  0  0  0  0  0  0  0  0  0  0
    4.8660   -5.9229   50.7204 H   0  0  0  0  0  0  0  0  0  0  0  0
    4.0481   -4.5185   50.0750 H   0  0  0  0  0  0  0  0  0  0  0  0
   16.6051   -5.7376   51.2543 H   0  0  0  0  0  0  0  0  0  0  0  0
    2.4740   -5.7102   51.5145 H   0  0  0  0  0  0  0  0  0  0  0  0
    3.5777   -5.6054   52.8961 H   0  0  0  0  0  0  0  0  0  0  0  0
    8.6140   -4.2114   51.4490 H   0  0  0  0  0  0  0  0  0  0  0  0
   10.5110   -3.1707   52.5650 H   0  0  0  0  0  0  0  0  0  0  0  0
    6.3263   -4.0920   55.0497 H   0  0  0  0  0  0  0  0  0  0  0  0
    7.4230   -3.1221   58.3673 H   0  0  0  0  0  0  0  0  0  0  0  0
    6.3376   -2.7810   57.0287 H   0  0  0  0  0  0  0  0  0  0  0  0
    6.9678   -4.4184   57.2718 H   0  0  0  0  0  0  0  0  0  0  0  0
   14.5647   -0.6504   55.8240 H   0  0  0  0  0  0  0  0  0  0  0  0
   15.6664   -2.2756   54.3066 H   0  0  0  0  0  0  0  0  0  0  0  0
   16.5094   -3.8556   52.8099 H   0  0  0  0  0  0  0  0  0  0  0  0
   11.4711   -5.2307   52.8517 H   0  0  0  0  0  0  0  0  0  0  0  0
   10.8651   -7.1228   51.3988 H   0  0  0  0  0  0  0  0  0  0  0  0
   14.7301   -7.6602   50.0903 H   0  0  0  0  0  0  0  0  0  0  0  0
  1  2  1  0
  1 33  1  0
  1 34  1  0
  1 35  1  0
  2  4  1  0
  2 13  1  0
  2 36  1  6
  3  9  1  0
  3 15  1  0
  4  7  1  0
  4 37  1  0
  4 38  1  0
  5 18  1  0
  5 22  1  0
  5 39  1  0
  6 19  1  0
  6 21  1  0
  7  9  1  0
  7 40  1  0
  7 41  1  0
  8 22  2  0
  8 23  1  0
  9 11  1  0
  9 42  1  6
 10 22  1  0
 10 25  2  0
 11 13  1  0
 11 43  1  0
 11 44  1  0
 12 27  1  0
 12 28  1  0
 12 45  1  0
 13 46  1  0
 13 47  1  0
 14 31  1  0
 14 32  2  0
 15 16  2  0
 15 20  1  0
 16 17  1  0
 16 48  1  0
 17 18  2  0
 17 49  1  0
 18 19  1  0
 19 20  2  0
 20 50  1  0
 21 51  1  0
 21 52  1  0
 21 53  1  0
 23 24  2  0
 23 54  1  0
 24 25  1  0
 24 55  1  0
 25 26  1  0
 26 27  2  0
 26 29  1  0
 27 56  1  0
 28 29  2  0
 28 32  1  0
 29 30  1  0
 30 31  2  0
 30 57  1  0
 31 58  1  0
 32 59  1  0
M  CHG  1   2   1
M  END
$$$$
