MKH_ref
     RDKit          3D

 60 63  0  0  1  0  0  0  0  0999 V2000
  -10.0570   -2.8830  -10.6590 O   0  0  0  0  0  0  0  0  0  0  0  0
  -10.5410   -3.9300  -10.1930 C   0  0  0  0  0  0  0  0  0  0  0  0
  -10.6160   -4.9220  -11.1110 N   0  0  0  0  0  0  0  0  0  0  0  0
  -11.0720   -6.1540  -10.7340 C   0  0  0  0  0  0  0  0  0  0  0  0
  -11.4360   -6.3770   -9.3720 N   0  0  0  0  0  0  0  0  0  0  0  0
  -11.3180   -5.3960   -8.4080 C   0  0  0  0  0  0  0  0  0  0  0  0
  -10.8590   -4.1100   -8.8150 C   0  0  0  0  0  0  0  0  0  0  0  0
  -11.1940   -7.0330  -11.6270 O   0  0  0  0  0  0  0  0  0  0  0  0
  -11.8900   -7.7160   -8.9150 C   0  0  0  0  0  0  0  0  0  0  0  0
  -13.3790   -7.6580   -8.6120 C   0  0  0  0  0  0  0  0  0  0  0  0
  -14.1150   -7.6190   -9.9620 C   0  0  0  0  0  0  0  0  0  0  0  0
  -15.7790   -7.8810   -9.7840 S   0  0  0  0  0  0  0  0  0  0  0  0
  -16.5290   -7.9580  -11.1450 N   0  0  0  0  0  0  0  0  0  0  0  0
  -16.4440   -9.1570  -12.0270 C   0  0  0  0  0  0  0  0  0  0  0  0
  -17.8970   -9.2750  -12.5940 C   0  0  0  0  0  0  0  0  0  0  0  0
  -18.6550   -7.9890  -12.2030 C   0  0  0  0  0  0  0  0  0  0  0  0
  -17.5850   -7.0150  -11.6130 C   0  0  2  0  0  0  0  0  0  0  0  0
  -16.0780   -9.2030   -9.2780 O   0  0  0  0  0  0  0  0  0  0  0  0
  -16.2010   -6.8610   -8.8670 O   0  0  0  0  0  0  0  0  0  0  0  0
  -17.1280   -5.9620  -12.6510 C   0  0  0  0  0  0  0  0  0  0  0  0
  -16.7190   -6.6940  -13.8240 O   0  0  0  0  0  0  0  0  0  0  0  0
  -18.2820   -5.0030  -12.9750 C   0  0  0  0  0  0  0  0  0  0  0  0
  -18.4260   -4.5560  -14.3000 C   0  0  0  0  0  0  0  0  0  0  0  0
  -19.4730   -3.6520  -14.6030 C   0  0  0  0  0  0  0  0  0  0  0  0
  -20.3500   -3.2480  -13.5820 C   0  0  0  0  0  0  0  0  0  0  0  0
  -20.1930   -3.6790  -12.2590 C   0  0  0  0  0  0  0  0  0  0  0  0
  -19.1350   -4.5480  -11.9280 C   0  0  0  0  0  0  0  0  0  0  0  0
  -15.9520   -5.0800  -12.1640 C   0  0  0  0  0  0  0  0  0  0  0  0
  -14.6890   -5.2650  -12.7780 C   0  0  0  0  0  0  0  0  0  0  0  0
  -13.6420   -4.4390  -12.3890 C   0  0  0  0  0  0  0  0  0  0  0  0
  -13.8370   -3.5200  -11.3480 C   0  0  0  0  0  0  0  0  0  0  0  0
  -15.0590   -3.2880  -10.6950 C   0  0  0  0  0  0  0  0  0  0  0  0
  -16.1370   -4.1030  -11.1330 C   0  0  0  0  0  0  0  0  0  0  0  0
  -10.3593   -4.7447  -12.0742 H   0  0  0  0  0  0  0  0  0  0  0  0
  -11.5954   -5.6840   -7.4050 H   0  0  0  0  0  0  0  0  0  0  0  0
  -10.7606   -3.2989   -8.1112 H   0  0  0  0  0  0  0  0  0  0  0  0
  -11.3211   -8.0231   -8.0393 H   0  0  0  0  0  0  0  0  0  0  0  0
  -11.6818   -8.4481   -9.6842 H   0  0  0  0  0  0  0  0  0  0  0  0
  -13.6477   -6.8144   -7.9756 H   0  0  0  0  0  0  0  0  0  0  0  0
  -13.6607   -8.5588   -8.0668 H   0  0  0  0  0  0  0  0  0  0  0  0
  -13.7193   -8.2699  -10.7272 H   0  0  0  0  0  0  0  0  0  0  0  0
  -14.0324   -6.6184  -10.3839 H   0  0  0  0  0  0  0  0  0  0  0  0
  -16.1822  -10.0718  -11.4968 H   0  0  0  0  0  0  0  0  0  0  0  0
  -15.7495   -9.0106  -12.8335 H   0  0  0  0  0  0  0  0  0  0  0  0
  -18.4008  -10.1507  -12.1823 H   0  0  0  0  0  0  0  0  0  0  0  0
  -17.8716   -9.4017  -13.6771 H   0  0  0  0  0  0  0  0  0  0  0  0
  -19.3819   -8.2327  -11.4268 H   0  0  0  0  0  0  0  0  0  0  0  0
  -19.2147   -7.5761  -13.0435 H   0  0  0  0  0  0  0  0  0  0  0  0
  -17.9821   -6.5193  -10.7319 H   0  0  0  0  0  0  0  0  0  0  0  0
  -16.0323   -7.3229  -13.5815 H   0  0  0  0  0  0  0  0  0  0  0  0
  -17.7791   -4.8836  -15.0976 H   0  0  0  0  0  0  0  0  0  0  0  0
  -19.6087   -3.2946  -15.6132 H   0  0  0  0  0  0  0  0  0  0  0  0
  -21.1575   -2.5716  -13.8213 H   0  0  0  0  0  0  0  0  0  0  0  0
  -20.8778   -3.3368  -11.5068 H   0  0  0  0  0  0  0  0  0  0  0  0
  -19.0397   -4.8464  -10.8973 H   0  0  0  0  0  0  0  0  0  0  0  0
  -14.4922   -5.9580  -13.5714 H   0  0  0  0  0  0  0  0  0  0  0  0
  -12.6791   -4.5288  -12.8584 H   0  0  0  0  0  0  0  0  0  0  0  0
  -12.9991   -2.9065  -11.0552 H   0  0  0  0  0  0  0  0  0  0  0  0
  -15.1692   -2.5333   -9.9375 H   0  0  0  0  0  0  0  0  0  0  0  0
  -17.0802   -3.9637  -10.6360 H   0  0  0  0  0  0  0  0  0  0  0  0
  1  2  2  0
  2  3  1  0
  2  7  1  0
  3  4  1  0
  3 34  1  0
  4  5  1  0
  4  8  2  0
  5  6  1  0
  5  9  1  0
  6  7  2  0
  6 35  1  0
  7 36  1  0
  9 10  1  0
  9 37  1  0
  9 38  1  0
 10 11  1  0
 10 39  1  0
 10 40  1  0
 11 12  1  0
 11 41  1  0
 11 42  1  0
 12 13  1  0
 12 18  2  0
 12 19  2  0
 13 14  1  0
 13 17  1  0
 14 15  1  0
 14 43  1  0
 14 44  1  0
 15 16  1  0
 15 45  1  0
 15 46  1  0
 16 17  1  0
 16 47  1  0
 16 48  1  0
 17 20  1  0
 17 49  1  1
 20 21  1  0
 20 22  1  0
 20 28  1  0
 21 50  1  0
 22 23  2  0
 22 27  1  0
 23 24  1  0
 23 51  1  0
 24 25  2  0
 24 52  1  0
 25 26  1  0
 25 53  1  0
 26 27  2  0
 26 54  1  0
 27 55  1  0
 28 29  2  0
 28 33  1  0
 29 30  1  0
 29 56  1  0
 30 31  2  0
 30 57  1  0
 31 32  1  0
 31 58  1  0
 32 33  2  0
 32 59  1  0
 33 60  1  0
M  END
$$$$
