4GQ_ref
     RDKit          3D

 79 82  0  0  1  0  0  0  0  0999 V2000
  -16.9590   -3.7110   10.2890 C   0  0  0  0  0  0  0  0  0  0  0  0
  -11.7520  -16.4410    8.0490 C   0  0  0  0  0  0  0  0  0  0  0  0
   -8.9990  -16.3130    7.7290 C   0  0  0  0  0  0  0  0  0  0  0  0
   -9.8150  -15.4000    7.0930 C   0  0  0  0  0  0  0  0  0  0  0  0
  -14.5180   -4.8850    9.5790 C   0  0  0  0  0  0  0  0  0  0  0  0
  -15.5600   -5.6520   10.0750 C   0  0  0  0  0  0  0  0  0  0  0  0
  -17.3680   -6.9920   11.6810 C   0  0  0  0  0  0  0  0  0  0  0  0
  -15.9080   -7.3380   11.5530 C   0  0  0  0  0  0  0  0  0  0  0  0
   -7.1420  -10.8270   13.5190 C   0  0  0  0  0  0  0  0  0  0  0  0
   -9.7860   -9.5540   13.4230 C   0  0  0  0  0  0  0  0  0  0  0  0
   -9.0130   -9.8910   12.1510 C   0  0  0  0  0  0  0  0  0  0  0  0
   -9.2050  -14.3520    6.2240 C   0  0  0  0  0  0  0  0  0  0  0  0
   -8.9830  -13.0160    6.9190 C   0  0  0  0  0  0  0  0  0  0  0  0
  -10.5250   -7.0040   11.1320 C   0  0  0  0  0  0  0  0  0  0  0  0
  -12.3340   -5.7760   10.3720 C   0  0  0  0  0  0  0  0  0  0  0  0
  -15.9290   -2.9380    9.7970 C   0  0  0  0  0  0  0  0  0  0  0  0
  -14.7270   -3.5230    9.4500 C   0  0  0  0  0  0  0  0  0  0  0  0
  -11.1870  -15.4710    7.2490 C   0  0  0  0  0  0  0  0  0  0  0  0
  -16.7600   -5.0680   10.4210 C   0  0  0  0  0  0  0  0  0  0  0  0
  -10.9300  -17.3430    8.6910 C   0  0  0  0  0  0  0  0  0  0  0  0
   -9.5610  -17.2800    8.5330 C   0  0  0  0  0  0  0  0  0  0  0  0
   -9.6450   -9.9780    9.7510 C   0  0  0  0  0  0  0  0  0  0  0  0
   -7.8710  -10.4310   14.7930 C   0  0  0  0  0  0  0  0  0  0  0  0
   -9.3760  -10.4340   14.5910 C   0  0  0  0  0  0  0  0  0  0  0  0
   -7.5050   -9.9130   12.3600 C   0  0  0  0  0  0  0  0  0  0  0  0
   -9.9380  -11.4410    9.9700 C   0  0  0  0  0  0  0  0  0  0  0  0
  -10.2630  -12.1520    8.6760 C   0  0  0  0  0  0  0  0  0  0  0  0
   -9.2950   -7.8070   10.7740 C   0  0  0  0  0  0  0  0  0  0  0  0
  -13.2070   -5.4890    9.1750 C   0  0  2  0  0  0  0  0  0  0  0  0
  -17.7560   -5.9050   10.9270 N   0  0  0  0  0  0  0  0  0  0  0  0
   -9.1760  -13.0610    8.3610 N   0  0  0  0  0  0  0  0  0  0  0  0
  -11.2240   -6.6020    9.9300 N   0  0  0  0  0  0  0  0  0  0  0  0
   -9.4740   -9.2420   10.9230 N   0  0  0  0  0  0  0  0  0  0  0  0
  -18.1040   -7.6170   12.4270 O   0  0  0  0  0  0  0  0  0  0  0  0
   -9.5680   -9.5050    8.6230 O   0  0  0  0  0  0  0  0  0  0  0  0
  -15.4600   -7.0290   10.2310 O   0  0  0  0  0  0  0  0  0  0  0  0
  -12.4910   -4.6120    8.3170 O   0  0  0  0  0  0  0  0  0  0  0  0
  -11.6310  -18.5470    9.7010 Cl  0  0  0  0  0  0  0  0  0  0  0  0
   -8.5380  -18.4080    9.3330 Cl  0  0  0  0  0  0  0  0  0  0  0  0
  -17.8957   -3.2566   10.5729 H   0  0  0  0  0  0  0  0  0  0  0  0
  -12.8224  -16.4674    8.1955 H   0  0  0  0  0  0  0  0  0  0  0  0
   -7.9255  -16.2713    7.6086 H   0  0  0  0  0  0  0  0  0  0  0  0
  -15.7486   -8.3947   11.7696 H   0  0  0  0  0  0  0  0  0  0  0  0
  -15.3695   -6.7625   12.3110 H   0  0  0  0  0  0  0  0  0  0  0  0
   -7.3786  -11.8622   13.2657 H   0  0  0  0  0  0  0  0  0  0  0  0
   -6.0648  -10.7955   13.6889 H   0  0  0  0  0  0  0  0  0  0  0  0
  -10.8489   -9.6947   13.2312 H   0  0  0  0  0  0  0  0  0  0  0  0
   -9.6491   -8.5023   13.6811 H   0  0  0  0  0  0  0  0  0  0  0  0
   -9.3179  -10.9277   12.1127 H   0  0  0  0  0  0  0  0  0  0  0  0
   -9.8140  -14.2197    5.3308 H   0  0  0  0  0  0  0  0  0  0  0  0
   -8.2600  -14.7203    5.8186 H   0  0  0  0  0  0  0  0  0  0  0  0
   -9.4295  -12.1685    6.4005 H   0  0  0  0  0  0  0  0  0  0  0  0
   -7.9153  -12.7927    6.8831 H   0  0  0  0  0  0  0  0  0  0  0  0
  -10.2476   -6.0832   11.6470 H   0  0  0  0  0  0  0  0  0  0  0  0
  -11.1992   -7.5882   11.7465 H   0  0  0  0  0  0  0  0  0  0  0  0
  -12.9026   -6.3561   11.1003 H   0  0  0  0  0  0  0  0  0  0  0  0
  -11.9359   -4.8666   10.8312 H   0  0  0  0  0  0  0  0  0  0  0  0
  -16.0605   -1.8714    9.6867 H   0  0  0  0  0  0  0  0  0  0  0  0
  -13.9548   -2.8626    9.0834 H   0  0  0  0  0  0  0  0  0  0  0  0
  -11.8290  -14.7034    6.8825 H   0  0  0  0  0  0  0  0  0  0  0  0
   -7.5437   -9.4408   15.1110 H   0  0  0  0  0  0  0  0  0  0  0  0
   -7.6047  -11.1121   15.6016 H   0  0  0  0  0  0  0  0  0  0  0  0
   -9.7132  -11.4542   14.4074 H   0  0  0  0  0  0  0  0  0  0  0  0
   -9.8768  -10.1059   15.5031 H   0  0  0  0  0  0  0  0  0  0  0  0
   -7.0204  -10.3042   11.4642 H   0  0  0  0  0  0  0  0  0  0  0  0
   -7.1091   -8.9068   12.5038 H   0  0  0  0  0  0  0  0  0  0  0  0
  -10.7852  -11.5012   10.6439 H   0  0  0  0  0  0  0  0  0  0  0  0
   -9.0911  -11.9213   10.4664 H   0  0  0  0  0  0  0  0  0  0  0  0
  -10.6425  -11.5218    7.8674 H   0  0  0  0  0  0  0  0  0  0  0  0
  -11.0644  -12.8717    8.8533 H   0  0  0  0  0  0  0  0  0  0  0  0
   -8.4994   -7.5211   11.4582 H   0  0  0  0  0  0  0  0  0  0  0  0
   -8.9017   -7.5239    9.7946 H   0  0  0  0  0  0  0  0  0  0  0  0
  -13.4528   -6.3851    8.6256 H   0  0  0  0  0  0  0  0  0  0  0  0
  -18.7105   -5.5865   11.0488 H   0  0  0  0  0  0  0  0  0  0  0  0
   -8.3335  -12.7450    8.8208 H   0  0  0  0  0  0  0  0  0  0  0  0
   -9.3747  -14.0013    8.6778 H   0  0  0  0  0  0  0  0  0  0  0  0
  -11.5620   -7.4187    9.4390 H   0  0  0  0  0  0  0  0  0  0  0  0
  -10.6206   -6.0702    9.3171 H   0  0  0  0  0  0  0  0  0  0  0  0
  -12.9040   -4.6298    7.4451 H   0  0  0  0  0  0  0  0  0  0  0  0
  1 16  2  0
  1 19  1  0
  1 40  1  0
  2 18  2  0
  2 20  1  0
  2 41  1  0
  3  4  2  0
  3 21  1  0
  3 42  1  0
  4 12  1  0
  4 18  1  0
  5  6  1  0
  5 17  2  0
  5 29  1  0
  6 19  2  0
  6 36  1  0
  7  8  1  0
  7 30  1  0
  7 34  2  0
  8 36  1  0
  8 43  1  0
  8 44  1  0
  9 23  1  0
  9 25  1  0
  9 45  1  0
  9 46  1  0
 10 11  1  0
 10 24  1  0
 10 47  1  0
 10 48  1  0
 11 25  1  0
 11 33  1  0
 11 49  1  0
 12 13  1  0
 12 50  1  0
 12 51  1  0
 13 31  1  0
 13 52  1  0
 13 53  1  0
 14 28  1  0
 14 32  1  0
 14 54  1  0
 14 55  1  0
 15 29  1  0
 15 32  1  0
 15 56  1  0
 15 57  1  0
 16 17  1  0
 16 58  1  0
 17 59  1  0
 18 60  1  0
 19 30  1  0
 20 21  2  0
 20 38  1  0
 21 39  1  0
 22 26  1  0
 22 33  1  0
 22 35  2  0
 23 24  1  0
 23 61  1  0
 23 62  1  0
 24 63  1  0
 24 64  1  0
 25 65  1  0
 25 66  1  0
 26 27  1  0
 26 67  1  0
 26 68  1  0
 27 31  1  0
 27 69  1  0
 27 70  1  0
 28 33  1  0
 28 71  1  0
 28 72  1  0
 29 37  1  0
 29 73  1  6
 30 74  1  0
 31 75  1  0
 31 76  1  0
 32 77  1  0
 32 78  1  0
 37 79  1  0
M  CHG  2  31   1  32   1
M  END
$$$$
