07S_ref
     RDKit          3D

 61 65  0  0  1  0  0  0  0  0999 V2000
   11.5160   -2.1470   12.3520 C   0  0  0  0  0  0  0  0  0  0  0  0
   12.5040   -3.0730   12.0860 C   0  0  0  0  0  0  0  0  0  0  0  0
   13.5850   -2.6620   11.3270 C   0  0  0  0  0  0  0  0  0  0  0  0
   13.6230   -1.3650   10.8410 C   0  0  0  0  0  0  0  0  0  0  0  0
   12.5750   -0.5240   11.1600 C   0  0  0  0  0  0  0  0  0  0  0  0
   11.5200   -0.8800   11.9080 N   0  0  0  0  0  0  0  0  0  0  0  0
   14.7590   -0.8600   10.0890 C   0  0  0  0  0  0  0  0  0  0  0  0
   16.2510   -1.7110   10.0300 S   0  0  0  0  0  0  0  0  0  0  0  0
   16.9780   -0.3950    9.1740 C   0  0  0  0  0  0  0  0  0  0  0  0
   16.1520    0.6010    8.9180 N   0  0  0  0  0  0  0  0  0  0  0  0
   14.9130    0.3450    9.4360 C   0  0  0  0  0  0  0  0  0  0  0  0
   18.2770   -0.3330    8.7720 N   0  0  0  0  0  0  0  0  0  0  0  0
   19.2550   -1.3180    8.9760 C   0  0  0  0  0  0  0  0  0  0  0  0
   18.9900   -2.4550    9.6280 N   0  0  0  0  0  0  0  0  0  0  0  0
   19.9860   -3.3340    9.7640 C   0  0  0  0  0  0  0  0  0  0  0  0
   21.2570   -3.1430    9.2750 C   0  0  0  0  0  0  0  0  0  0  0  0
   21.5390   -1.9760    8.5920 C   0  0  0  0  0  0  0  0  0  0  0  0
   20.5100   -1.0550    8.4530 C   0  0  0  0  0  0  0  0  0  0  0  0
   22.8530   -1.7470    8.1070 N   0  0  0  0  0  0  0  0  0  0  0  0
   23.7690   -2.8800    8.0740 C   0  0  0  0  0  0  0  0  0  0  0  0
   25.1400   -2.3550    8.4590 C   0  0  0  0  0  0  0  0  0  0  0  0
   25.4710   -1.1440    7.6410 N   0  0  0  0  0  0  0  0  0  0  0  0
   24.4290   -0.0800    7.4960 C   0  0  0  0  0  0  0  0  0  0  0  0
   23.0740   -0.6710    7.1520 C   0  0  0  0  0  0  0  0  0  0  0  0
   26.7460   -0.5380    8.0960 C   0  0  0  0  0  0  0  0  0  0  0  0
   27.7720   -0.7340    7.0220 C   0  0  0  0  0  0  0  0  0  0  0  0
   28.9300   -1.3190    7.4980 N   0  0  0  0  0  0  0  0  0  0  0  0
   30.1500   -0.5380    7.5880 C   0  0  0  0  0  0  0  0  0  0  0  0
   30.9350   -0.9000    8.8380 C   0  0  0  0  0  0  0  0  0  0  0  0
   31.0850   -2.3220    8.9280 O   0  0  0  0  0  0  0  0  0  0  0  0
   29.8190   -2.9870    9.0350 C   0  0  0  0  0  0  0  0  0  0  0  0
   29.0020   -2.7420    7.7760 C   0  0  0  0  0  0  0  0  0  0  0  0
   27.5650   -0.3850    5.8670 O   0  0  0  0  0  0  0  0  0  0  0  0
   10.6681   -2.4299   12.9589 H   0  0  0  0  0  0  0  0  0  0  0  0
   12.4502   -4.0752   12.4849 H   0  0  0  0  0  0  0  0  0  0  0  0
   14.3782   -3.3704   11.1432 H   0  0  0  0  0  0  0  0  0  0  0  0
   12.5710    0.4963   10.8139 H   0  0  0  0  0  0  0  0  0  0  0  0
   14.1442    1.0845    9.3718 H   0  0  0  0  0  0  0  0  0  0  0  0
   18.5774    0.5063    8.2934 H   0  0  0  0  0  0  0  0  0  0  0  0
   18.0806   -2.6275   10.0322 H   0  0  0  0  0  0  0  0  0  0  0  0
   19.7310   -4.1974   10.3556 H   0  0  0  0  0  0  0  0  0  0  0  0
   21.9344   -3.9386    9.5169 H   0  0  0  0  0  0  0  0  0  0  0  0
   20.6517   -0.1141    7.9503 H   0  0  0  0  0  0  0  0  0  0  0  0
   23.7707   -3.3039    7.0685 H   0  0  0  0  0  0  0  0  0  0  0  0
   23.6067   -3.7231    8.7300 H   0  0  0  0  0  0  0  0  0  0  0  0
   25.8871   -3.1299    8.2917 H   0  0  0  0  0  0  0  0  0  0  0  0
   25.1576   -2.1116    9.5235 H   0  0  0  0  0  0  0  0  0  0  0  0
   24.7379    0.6053    6.7057 H   0  0  0  0  0  0  0  0  0  0  0  0
   24.3542    0.5021    8.4167 H   0  0  0  0  0  0  0  0  0  0  0  0
   22.3667    0.1488    7.1614 H   0  0  0  0  0  0  0  0  0  0  0  0
   23.0525   -1.0698    6.1366 H   0  0  0  0  0  0  0  0  0  0  0  0
   27.0732   -0.9400    9.0591 H   0  0  0  0  0  0  0  0  0  0  0  0
   26.6656    0.5388    8.2606 H   0  0  0  0  0  0  0  0  0  0  0  0
   29.9205    0.5278    7.6461 H   0  0  0  0  0  0  0  0  0  0  0  0
   30.7374   -0.7973    6.7063 H   0  0  0  0  0  0  0  0  0  0  0  0
   30.4381   -0.5178    9.7321 H   0  0  0  0  0  0  0  0  0  0  0  0
   31.9199   -0.4335    8.8129 H   0  0  0  0  0  0  0  0  0  0  0  0
   29.2816   -2.6438    9.9217 H   0  0  0  0  0  0  0  0  0  0  0  0
   29.9848   -4.0556    9.1730 H   0  0  0  0  0  0  0  0  0  0  0  0
   29.5151   -3.1879    6.9231 H   0  0  0  0  0  0  0  0  0  0  0  0
   28.0110   -3.1673    7.9325 H   0  0  0  0  0  0  0  0  0  0  0  0
  1  2  2  0
  1  6  1  0
  1 34  1  0
  2  3  1  0
  2 35  1  0
  3  4  2  0
  3 36  1  0
  4  5  1  0
  4  7  1  0
  5  6  2  0
  5 37  1  0
  7  8  1  0
  7 11  2  0
  8  9  1  0
  9 10  2  0
  9 12  1  0
 10 11  1  0
 11 38  1  0
 12 13  1  0
 12 39  1  0
 13 14  2  0
 13 18  1  0
 14 15  1  0
 14 40  1  0
 15 16  2  0
 15 41  1  0
 16 17  1  0
 16 42  1  0
 17 18  2  0
 17 19  1  0
 18 43  1  0
 19 20  1  0
 19 24  1  0
 20 21  1  0
 20 44  1  0
 20 45  1  0
 21 22  1  0
 21 46  1  0
 21 47  1  0
 22 23  1  0
 22 25  1  0
 23 24  1  0
 23 48  1  0
 23 49  1  0
 24 50  1  0
 24 51  1  0
 25 26  1  0
 25 52  1  0
 25 53  1  0
 26 27  1  0
 26 33  2  0
 27 28  1  0
 27 32  1  0
 28 29  1  0
 28 54  1  0
 28 55  1  0
 29 30  1  0
 29 56  1  0
 29 57  1  0
 30 31  1  0
 31 32  1  0
 31 58  1  0
 31 59  1  0
 32 60  1  0
 32 61  1  0
M  CHG  1  14   1
M  END
$$$$
