82H_ref
     RDKit          3D

 76 81  0  0  1  0  0  0  0  0999 V2000
   37.5570    8.0320   45.0820 C   0  0  0  0  0  0  0  0  0  0  0  0
   36.3320    7.5240   45.4460 C   0  0  0  0  0  0  0  0  0  0  0  0
   44.9280    6.9650   52.4400 C   0  0  0  0  0  0  0  0  0  0  0  0
   40.7870    5.1400   49.8760 C   0  0  0  0  0  0  0  0  0  0  0  0
   41.0060    7.1590   51.1760 C   0  0  0  0  0  0  0  0  0  0  0  0
   37.0780    7.2490   47.7100 C   0  0  0  0  0  0  0  0  0  0  0  0
   44.4860    5.2210   50.8970 C   0  0  0  0  0  0  0  0  0  0  0  0
   39.9350    9.1500   49.9410 C   0  0  0  0  0  0  0  0  0  0  0  0
   40.3320    7.8050   50.1630 C   0  0  0  0  0  0  0  0  0  0  0  0
   36.1000    7.1170   46.7460 C   0  0  0  0  0  0  0  0  0  0  0  0
   44.1090    5.9410   52.0090 C   0  0  0  0  0  0  0  0  0  0  0  0
   39.9060    7.1100   49.0500 C   0  0  0  0  0  0  0  0  0  0  0  0
   38.2920    7.7740   47.3230 C   0  0  0  0  0  0  0  0  0  0  0  0
   41.2240    5.8060   50.9940 C   0  0  0  0  0  0  0  0  0  0  0  0
   34.7610    6.6300   47.1440 C   0  0  0  0  0  0  0  0  0  0  0  0
   45.2470    4.2960   54.6570 C   0  0  0  0  0  0  0  0  0  0  0  0
   31.8610    7.4410   47.9190 C   0  0  0  0  0  0  0  0  0  0  0  0
   48.1380    5.8710   49.1710 C   0  0  0  0  0  0  0  0  0  0  0  0
   32.2950    7.0410   46.5310 C   0  0  2  0  0  0  0  0  0  0  0  0
   42.8190    5.6740   52.7390 C   0  0  2  0  0  0  0  0  0  0  0  0
   43.0000    4.7710   53.9220 C   0  0  2  0  0  0  0  0  0  0  0  0
   46.4010    4.7180   55.5110 C   0  0  0  0  0  0  0  0  0  0  0  0
   40.1000    5.7550   48.8580 C   0  0  0  0  0  0  0  0  0  0  0  0
   38.5410    8.1630   46.0290 C   0  0  0  0  0  0  0  0  0  0  0  0
   46.1140    7.2600   51.8130 C   0  0  0  0  0  0  0  0  0  0  0  0
   46.4930    6.5250   50.7200 C   0  0  0  0  0  0  0  0  0  0  0  0
   45.6650    5.5240   50.2520 C   0  0  0  0  0  0  0  0  0  0  0  0
   31.2170    6.2010   48.5110 C   0  0  0  0  0  0  0  0  0  0  0  0
   46.9600    5.4370   48.3210 C   0  0  0  0  0  0  0  0  0  0  0  0
   31.6150    5.7320   46.2680 C   0  0  0  0  0  0  0  0  0  0  0  0
   41.7550    4.7500   54.7490 C   0  0  0  0  0  0  0  0  0  0  0  0
   47.4340    5.2380   54.5490 C   0  0  0  0  0  0  0  0  0  0  0  0
   39.3160    9.2810   48.7650 N   0  0  0  0  0  0  0  0  0  0  0  0
   39.2850    8.0300   48.2550 N   0  0  0  0  0  0  0  0  0  0  0  0
   33.7300    6.9790   46.2730 N   0  0  0  0  0  0  0  0  0  0  0  0
   44.1320    5.1030   54.7290 N   0  0  0  0  0  0  0  0  0  0  0  0
   34.6550    6.0850   48.2280 O   0  0  0  0  0  0  0  0  0  0  0  0
   45.3470    3.3170   53.9340 O   0  0  0  0  0  0  0  0  0  0  0  0
   47.6990    6.8740   50.0950 O   0  0  0  0  0  0  0  0  0  0  0  0
   46.0070    4.7520   49.1470 O   0  0  0  0  0  0  0  0  0  0  0  0
   31.1570    5.1860   47.5030 O   0  0  0  0  0  0  0  0  0  0  0  0
   41.8620    4.9950   51.9250 O   0  0  0  0  0  0  0  0  0  0  0  0
   46.0920    5.6340   56.4720 F   0  0  0  0  0  0  0  0  0  0  0  0
   46.9480    3.6800   56.1900 F   0  0  0  0  0  0  0  0  0  0  0  0
   37.7394    8.3359   44.0616 H   0  0  0  0  0  0  0  0  0  0  0  0
   35.5896    7.4332   44.6679 H   0  0  0  0  0  0  0  0  0  0  0  0
   44.6439    7.5553   53.3004 H   0  0  0  0  0  0  0  0  0  0  0  0
   40.9696    4.0787   49.8054 H   0  0  0  0  0  0  0  0  0  0  0  0
   41.2937    7.7152   52.0469 H   0  0  0  0  0  0  0  0  0  0  0  0
   36.9107    6.9796   48.7437 H   0  0  0  0  0  0  0  0  0  0  0  0
   43.8683    4.4171   50.5235 H   0  0  0  0  0  0  0  0  0  0  0  0
   40.1091    9.9967   50.5841 H   0  0  0  0  0  0  0  0  0  0  0  0
   31.0982    8.2159   47.8512 H   0  0  0  0  0  0  0  0  0  0  0  0
   32.6521    7.8461   48.5462 H   0  0  0  0  0  0  0  0  0  0  0  0
   48.9349    6.2726   48.5497 H   0  0  0  0  0  0  0  0  0  0  0  0
   48.5521    5.0449   49.7392 H   0  0  0  0  0  0  0  0  0  0  0  0
   31.8953    7.7675   45.8259 H   0  0  0  0  0  0  0  0  0  0  0  0
   42.4751    6.6135   53.1682 H   0  0  0  0  0  0  0  0  0  0  0  0
   43.0628    3.7503   53.5320 H   0  0  0  0  0  0  0  0  0  0  0  0
   39.7529    5.2236   47.9832 H   0  0  0  0  0  0  0  0  0  0  0  0
   39.4955    8.5747   45.7645 H   0  0  0  0  0  0  0  0  0  0  0  0
   46.7373    8.0537   52.1739 H   0  0  0  0  0  0  0  0  0  0  0  0
   30.2197    6.4387   48.8802 H   0  0  0  0  0  0  0  0  0  0  0  0
   31.8576    5.8464   49.3179 H   0  0  0  0  0  0  0  0  0  0  0  0
   47.2738    4.7767   47.5132 H   0  0  0  0  0  0  0  0  0  0  0  0
   46.5698    6.3500   47.8842 H   0  0  0  0  0  0  0  0  0  0  0  0
   32.2507    4.9972   45.7870 H   0  0  0  0  0  0  0  0  0  0  0  0
   30.7254    5.9031   45.6599 H   0  0  0  0  0  0  0  0  0  0  0  0
   41.7976    3.9776   55.5173 H   0  0  0  0  0  0  0  0  0  0  0  0
   41.5748    5.7099   55.2350 H   0  0  0  0  0  0  0  0  0  0  0  0
   40.8657    4.5404   54.1547 H   0  0  0  0  0  0  0  0  0  0  0  0
   48.3628    5.4389   55.0834 H   0  0  0  0  0  0  0  0  0  0  0  0
   47.6861    4.5432   53.7445 H   0  0  0  0  0  0  0  0  0  0  0  0
   47.1340    6.1852   54.1023 H   0  0  0  0  0  0  0  0  0  0  0  0
   34.0003    7.3997   45.3932 H   0  0  0  0  0  0  0  0  0  0  0  0
   44.0788    5.9014   55.3511 H   0  0  0  0  0  0  0  0  0  0  0  0
  1  2  2  0
  1 24  1  0
  1 45  1  0
  2 10  1  0
  2 46  1  0
  3 11  2  0
  3 25  1  0
  3 47  1  0
  4 14  2  0
  4 23  1  0
  4 48  1  0
  5  9  2  0
  5 14  1  0
  5 49  1  0
  6 10  2  0
  6 13  1  0
  6 50  1  0
  7 11  1  0
  7 27  2  0
  7 51  1  0
  8  9  1  0
  8 33  2  0
  8 52  1  0
  9 12  1  0
 10 15  1  0
 11 20  1  0
 12 23  2  0
 12 34  1  0
 13 24  2  0
 13 34  1  0
 14 42  1  0
 15 35  1  0
 15 37  2  0
 16 22  1  0
 16 36  1  0
 16 38  2  0
 17 19  1  0
 17 28  1  0
 17 53  1  0
 17 54  1  0
 18 29  1  0
 18 39  1  0
 18 55  1  0
 18 56  1  0
 19 30  1  0
 19 35  1  0
 19 57  1  6
 20 21  1  0
 20 42  1  0
 20 58  1  1
 21 31  1  0
 21 36  1  0
 21 59  1  6
 22 32  1  0
 22 43  1  0
 22 44  1  0
 23 60  1  0
 24 61  1  0
 25 26  2  0
 25 62  1  0
 26 27  1  0
 26 39  1  0
 27 40  1  0
 28 41  1  0
 28 63  1  0
 28 64  1  0
 29 40  1  0
 29 65  1  0
 29 66  1  0
 30 41  1  0
 30 67  1  0
 30 68  1  0
 31 69  1  0
 31 70  1  0
 31 71  1  0
 32 72  1  0
 32 73  1  0
 32 74  1  0
 33 34  1  0
 35 75  1  0
 36 76  1  0
M  END
$$$$
