0V6_ref
     RDKit          3D

 43 45  0  0  1  0  0  0  0  0999 V2000
   20.7440   34.2600   55.8250 C   0  0  0  0  0  0  0  0  0  0  0  0
   19.2290   34.9720   56.2240 S   0  0  0  0  0  0  0  0  0  0  0  0
   20.5570   33.3260   54.8440 C   0  0  0  0  0  0  0  0  0  0  0  0
   19.1890   33.1760   54.4070 C   0  0  0  0  0  0  0  0  0  0  0  0
   18.3400   34.0620   55.1040 C   0  0  0  0  0  0  0  0  0  0  0  0
   22.6850   33.4740   57.1920 C   0  0  0  0  0  0  0  0  0  0  0  0
   21.8120   32.8850   58.3250 C   0  0  0  0  0  0  0  0  0  0  0  0
   21.0130   33.8090   59.0990 N   0  0  0  0  0  0  0  0  0  0  0  0
   21.0230   35.1780   58.8690 C   0  0  0  0  0  0  0  0  0  0  0  0
   21.6940   35.6140   57.7190 N   0  0  0  0  0  0  0  0  0  0  0  0
   22.0010   34.7040   56.5570 C   0  0  2  0  0  0  0  0  0  0  0  0
   22.9820   35.5130   55.6440 C   0  0  0  0  0  0  0  0  0  0  0  0
   21.8800   32.4360   54.1950 Cl  0  0  0  0  0  0  0  0  0  0  0  0
   16.8850   34.1610   55.0190 C   0  0  0  0  0  0  0  0  0  0  0  0
   16.1460   34.8430   56.0250 C   0  0  0  0  0  0  0  0  0  0  0  0
   14.7310   34.8620   56.0320 C   0  0  0  0  0  0  0  0  0  0  0  0
   14.0720   34.1940   54.9940 C   0  0  0  0  0  0  0  0  0  0  0  0
   14.7570   33.5370   53.9810 N   0  0  0  0  0  0  0  0  0  0  0  0
   16.1310   33.5230   54.0000 C   0  0  0  0  0  0  0  0  0  0  0  0
   20.5230   36.0370   59.7380 N   0  0  0  0  0  0  0  0  0  0  0  0
   21.8330   31.6690   58.5350 O   0  0  0  0  0  0  0  0  0  0  0  0
   20.1610   33.2410   60.2020 C   0  0  0  0  0  0  0  0  0  0  0  0
   13.9950   35.5130   57.0660 C   0  0  0  0  0  0  0  0  0  0  0  0
   13.3880   36.0480   57.9180 C   0  0  0  0  0  0  0  0  0  0  0  0
   12.6110   36.6620   59.0100 C   0  0  0  0  0  0  0  0  0  0  0  0
   18.8815   32.4826   53.6555 H   0  0  0  0  0  0  0  0  0  0  0  0
   22.9344   32.6869   56.4895 H   0  0  0  0  0  0  0  0  0  0  0  0
   23.6333   33.7554   57.6527 H   0  0  0  0  0  0  0  0  0  0  0  0
   21.6775   36.6169   57.5441 H   0  0  0  0  0  0  0  0  0  0  0  0
   23.8940   35.8068   56.1654 H   0  0  0  0  0  0  0  0  0  0  0  0
   23.2848   34.9254   54.7783 H   0  0  0  0  0  0  0  0  0  0  0  0
   22.5207   36.4215   55.2524 H   0  0  0  0  0  0  0  0  0  0  0  0
   16.6575   35.4180   56.7698 H   0  0  0  0  0  0  0  0  0  0  0  0
   12.9960   34.1328   54.9562 H   0  0  0  0  0  0  0  0  0  0  0  0
   16.6084   32.9857   53.1957 H   0  0  0  0  0  0  0  0  0  0  0  0
   20.4834   37.0288   59.5058 H   0  0  0  0  0  0  0  0  0  0  0  0
   20.1216   35.7280   60.6175 H   0  0  0  0  0  0  0  0  0  0  0  0
   19.2049   33.7624   60.1959 H   0  0  0  0  0  0  0  0  0  0  0  0
   19.9676   32.1791   60.0468 H   0  0  0  0  0  0  0  0  0  0  0  0
   20.6654   33.3821   61.1545 H   0  0  0  0  0  0  0  0  0  0  0  0
   12.8514   37.7173   59.0733 H   0  0  0  0  0  0  0  0  0  0  0  0
   11.5501   36.6191   58.7980 H   0  0  0  0  0  0  0  0  0  0  0  0
   12.8285   36.1776   59.9555 H   0  0  0  0  0  0  0  0  0  0  0  0
  1  2  1  0
  1  3  2  0
  1 11  1  0
  2  5  1  0
  3  4  1  0
  3 13  1  0
  4  5  2  0
  4 26  1  0
  5 14  1  0
  6  7  1  0
  6 11  1  0
  6 27  1  0
  6 28  1  0
  7  8  1  0
  7 21  2  0
  8  9  1  0
  8 22  1  0
  9 10  2  0
  9 20  1  0
 10 11  1  0
 10 29  1  0
 11 12  1  6
 12 30  1  0
 12 31  1  0
 12 32  1  0
 14 15  2  0
 14 19  1  0
 15 16  1  0
 15 33  1  0
 16 17  2  0
 16 23  1  0
 17 18  1  0
 17 34  1  0
 18 19  2  0
 19 35  1  0
 20 36  1  0
 20 37  1  0
 22 38  1  0
 22 39  1  0
 22 40  1  0
 23 24  3  0
 24 25  1  0
 25 41  1  0
 25 42  1  0
 25 43  1  0
M  CHG  1  10   1
M  END
$$$$
