L92_ref
     RDKit          3D

 56 59  0  0  1  0  0  0  0  0999 V2000
   18.3630   63.1370   20.2510 O   0  0  0  0  0  0  0  0  0  0  0  0
   19.1270   62.5230   19.4730 C   0  0  0  0  0  0  0  0  0  0  0  0
   20.0590   61.7950   19.8760 O   0  0  0  0  0  0  0  0  0  0  0  0
   18.9180   62.7010   17.9940 C   0  0  1  0  0  0  0  0  0  0  0  0
   19.9660   63.6310   17.4860 N   0  0  0  0  0  0  0  0  0  0  0  0
   20.9530   63.3840   16.6100 C   0  0  0  0  0  0  0  0  0  0  0  0
   21.6800   64.5350   16.4230 C   0  0  0  0  0  0  0  0  0  0  0  0
   21.1060   65.5040   17.2110 C   0  0  0  0  0  0  0  0  0  0  0  0
   20.0420   64.9150   17.8590 C   0  0  0  0  0  0  0  0  0  0  0  0
   18.8670   61.3650   17.2230 C   0  0  0  0  0  0  0  0  0  0  0  0
   18.2230   61.6380   15.8770 C   0  0  0  0  0  0  0  0  0  0  0  0
   18.9360   61.6460   14.6720 C   0  0  0  0  0  0  0  0  0  0  0  0
   18.2850   61.9270   13.4600 C   0  0  0  0  0  0  0  0  0  0  0  0
   16.9170   62.1930   13.4490 C   0  0  0  0  0  0  0  0  0  0  0  0
   16.2230   62.1920   14.6590 C   0  0  0  0  0  0  0  0  0  0  0  0
   16.8640   61.9110   15.8560 C   0  0  0  0  0  0  0  0  0  0  0  0
   16.1170   62.5290   12.1990 C   0  0  0  0  0  0  0  0  0  0  0  0
   16.3360   61.6510   10.9780 C   0  0  0  0  0  0  0  0  0  0  0  0
   17.5580   62.0520   10.2080 C   0  0  0  0  0  0  0  0  0  0  0  0
   17.7700   63.3980    9.6150 C   0  0  0  0  0  0  0  0  0  0  0  0
   18.8820   63.7720    8.9250 C   0  0  0  0  0  0  0  0  0  0  0  0
   20.0820   62.9770    8.5960 C   0  0  0  0  0  0  0  0  0  0  0  0
   18.7590   65.0600    8.5280 O   0  0  0  0  0  0  0  0  0  0  0  0
   17.5340   65.4760    8.9990 C   0  0  0  0  0  0  0  0  0  0  0  0
   16.9150   64.4470    9.6740 N   0  0  0  0  0  0  0  0  0  0  0  0
   17.0660   66.7670    8.7760 C   0  0  0  0  0  0  0  0  0  0  0  0
   15.8290   67.1810    9.2570 C   0  0  0  0  0  0  0  0  0  0  0  0
   15.3850   68.4820    9.0180 C   0  0  0  0  0  0  0  0  0  0  0  0
   16.1800   69.3710    8.3000 C   0  0  0  0  0  0  0  0  0  0  0  0
   17.4170   68.9590    7.8160 C   0  0  0  0  0  0  0  0  0  0  0  0
   17.8580   67.6630    8.0560 C   0  0  0  0  0  0  0  0  0  0  0  0
   18.0057   63.1891   17.8549 H   0  0  0  0  0  0  0  0  0  0  0  0
   21.0968   62.4071   16.1835 H   0  0  0  0  0  0  0  0  0  0  0  0
   22.5361   64.6545   15.7758 H   0  0  0  0  0  0  0  0  0  0  0  0
   21.4290   66.5306   17.2988 H   0  0  0  0  0  0  0  0  0  0  0  0
   19.3276   65.3240   18.5595 H   0  0  0  0  0  0  0  0  0  0  0  0
   18.2392   60.6417   17.7484 H   0  0  0  0  0  0  0  0  0  0  0  0
   19.8438   60.8912   17.1193 H   0  0  0  0  0  0  0  0  0  0  0  0
   19.9922   61.4279   14.6508 H   0  0  0  0  0  0  0  0  0  0  0  0
   18.8990   61.9553   12.5851 H   0  0  0  0  0  0  0  0  0  0  0  0
   15.1654   62.4089   14.6883 H   0  0  0  0  0  0  0  0  0  0  0  0
   16.2876   61.8888   16.7682 H   0  0  0  0  0  0  0  0  0  0  0  0
   16.1923   63.5946   11.9908 H   0  0  0  0  0  0  0  0  0  0  0  0
   15.0781   62.3468   12.4557 H   0  0  0  0  0  0  0  0  0  0  0  0
   15.4657   61.7071   10.3212 H   0  0  0  0  0  0  0  0  0  0  0  0
   16.4217   60.6229   11.3029 H   0  0  0  0  0  0  0  0  0  0  0  0
   17.5382   61.3819    9.3466 H   0  0  0  0  0  0  0  0  0  0  0  0
   18.4611   61.7122   10.6961 H   0  0  0  0  0  0  0  0  0  0  0  0
   20.9899   63.4781    8.9301 H   0  0  0  0  0  0  0  0  0  0  0  0
   20.0847   61.9816    9.0386 H   0  0  0  0  0  0  0  0  0  0  0  0
   20.1170   62.8483    7.5172 H   0  0  0  0  0  0  0  0  0  0  0  0
   15.2117   66.5126    9.8351 H   0  0  0  0  0  0  0  0  0  0  0  0
   14.4278   68.8043    9.4013 H   0  0  0  0  0  0  0  0  0  0  0  0
   15.8380   70.3804    8.1238 H   0  0  0  0  0  0  0  0  0  0  0  0
   18.0378   69.6473    7.2610 H   0  0  0  0  0  0  0  0  0  0  0  0
   18.8257   67.3698    7.6745 H   0  0  0  0  0  0  0  0  0  0  0  0
  1  2  1  0
  2  3  2  0
  2  4  1  0
  4  5  1  0
  4 10  1  0
  4 32  1  1
  5  6  1  0
  5  9  1  0
  6  7  2  0
  6 33  1  0
  7  8  1  0
  7 34  1  0
  8  9  2  0
  8 35  1  0
  9 36  1  0
 10 11  1  0
 10 37  1  0
 10 38  1  0
 11 12  2  0
 11 16  1  0
 12 13  1  0
 12 39  1  0
 13 14  2  0
 13 40  1  0
 14 15  1  0
 14 17  1  0
 15 16  2  0
 15 41  1  0
 16 42  1  0
 17 18  1  0
 17 43  1  0
 17 44  1  0
 18 19  1  0
 18 45  1  0
 18 46  1  0
 19 20  1  0
 19 47  1  0
 19 48  1  0
 20 21  2  0
 20 25  1  0
 21 22  1  0
 21 23  1  0
 22 49  1  0
 22 50  1  0
 22 51  1  0
 23 24  1  0
 24 25  2  0
 24 26  1  0
 26 27  2  0
 26 31  1  0
 27 28  1  0
 27 52  1  0
 28 29  2  0
 28 53  1  0
 29 30  1  0
 29 54  1  0
 30 31  2  0
 30 55  1  0
 31 56  1  0
M  CHG  1   1  -1
M  END
$$$$
