RLJ_ref
     RDKit          3D

 42 43  0  0  1  0  0  0  0  0999 V2000
   28.0400    4.8800    3.5090 C   0  0  0  0  0  0  0  0  0  0  0  0
   23.7090    2.5460    3.9970 F   0  0  0  0  0  0  0  0  0  0  0  0
   27.0690    5.8740    3.4780 C   0  0  0  0  0  0  0  0  0  0  0  0
   23.5880    4.1100    5.4650 F   0  0  0  0  0  0  0  0  0  0  0  0
   25.7300    5.5610    3.6830 C   0  0  0  0  0  0  0  0  0  0  0  0
   23.0210    4.4890    3.4140 F   0  0  0  0  0  0  0  0  0  0  0  0
   25.3440    4.2420    3.9190 C   0  0  0  0  0  0  0  0  0  0  0  0
   27.6680    3.5620    3.7430 C   0  0  0  0  0  0  0  0  0  0  0  0
   26.3250    3.2540    3.9430 C   0  0  0  0  0  0  0  0  0  0  0  0
   23.8850    3.8490    4.1960 C   0  0  0  0  0  0  0  0  0  0  0  0
   24.7960    6.6450    3.6630 C   0  0  0  0  0  0  0  0  0  0  0  0
   24.0660    7.5180    3.6440 N   0  0  0  0  0  0  0  0  0  0  0  0
   28.6350    2.6490    3.7740 N   0  0  0  0  0  0  0  0  0  0  0  0
   28.4510    1.3490    3.9920 C   0  0  0  0  0  0  0  0  0  0  0  0
   27.3630    0.8200    4.2160 O   0  0  0  0  0  0  0  0  0  0  0  0
   29.7450    0.5320    3.9730 C   0  0  2  0  0  0  0  0  0  0  0  0
   30.8100    1.3560    3.4930 O   0  0  0  0  0  0  0  0  0  0  0  0
   29.5750   -0.7060    3.0900 C   0  0  0  0  0  0  0  0  0  0  0  0
   30.0640    0.0970    5.3940 C   0  0  0  0  0  0  0  0  0  0  0  0
   30.1330    1.2850    6.1950 O   0  0  0  0  0  0  0  0  0  0  0  0
   29.9250    1.0180    7.5120 C   0  0  0  0  0  0  0  0  0  0  0  0
   29.2800    1.9720    8.2910 C   0  0  0  0  0  0  0  0  0  0  0  0
   29.0510    1.7300    9.6400 C   0  0  0  0  0  0  0  0  0  0  0  0
   29.4680    0.5330   10.2130 C   0  0  0  0  0  0  0  0  0  0  0  0
   30.1110   -0.4250    9.4360 C   0  0  0  0  0  0  0  0  0  0  0  0
   30.3380   -0.1820    8.0850 C   0  0  0  0  0  0  0  0  0  0  0  0
   29.2460    0.3130   11.6100 C   0  0  0  0  0  0  0  0  0  0  0  0
   29.0680    0.1510   12.7220 N   0  0  0  0  0  0  0  0  0  0  0  0
   29.0585    5.1843    3.3901 H   0  0  0  0  0  0  0  0  0  0  0  0
   27.3763    6.8947    3.3202 H   0  0  0  0  0  0  0  0  0  0  0  0
   25.8926    2.3068    4.1628 H   0  0  0  0  0  0  0  0  0  0  0  0
   29.5835    2.9616    3.6120 H   0  0  0  0  0  0  0  0  0  0  0  0
   31.6270    0.8417    3.4521 H   0  0  0  0  0  0  0  0  0  0  0  0
   30.4899   -1.3001    3.0636 H   0  0  0  0  0  0  0  0  0  0  0  0
   28.7790   -1.3655    3.4408 H   0  0  0  0  0  0  0  0  0  0  0  0
   29.3438   -0.4351    2.0582 H   0  0  0  0  0  0  0  0  0  0  0  0
   31.0542   -0.3531    5.3882 H   0  0  0  0  0  0  0  0  0  0  0  0
   29.3121   -0.6070    5.7423 H   0  0  0  0  0  0  0  0  0  0  0  0
   28.9771    2.9022    7.8517 H   0  0  0  0  0  0  0  0  0  0  0  0
   28.5287    2.4756   10.2215 H   0  0  0  0  0  0  0  0  0  0  0  0
   30.4318   -1.3526    9.8778 H   0  0  0  0  0  0  0  0  0  0  0  0
   30.9302   -0.8592    7.5220 H   0  0  0  0  0  0  0  0  0  0  0  0
  1  3  2  0
  1  8  1  0
  1 29  1  0
  2 10  1  0
  3  5  1  0
  3 30  1  0
  4 10  1  0
  5  7  2  0
  5 11  1  0
  6 10  1  0
  7  9  1  0
  7 10  1  0
  8  9  2  0
  8 13  1  0
  9 31  1  0
 11 12  3  0
 13 14  1  0
 13 32  1  0
 14 15  2  0
 14 16  1  0
 16 17  1  6
 16 18  1  0
 16 19  1  0
 17 33  1  0
 18 34  1  0
 18 35  1  0
 18 36  1  0
 19 20  1  0
 19 37  1  0
 19 38  1  0
 20 21  1  0
 21 22  2  0
 21 26  1  0
 22 23  1  0
 22 39  1  0
 23 24  2  0
 23 40  1  0
 24 25  1  0
 24 27  1  0
 25 26  2  0
 25 41  1  0
 26 42  1  0
 27 28  3  0
M  END
$$$$
