09F_ref
     RDKit          3D

 47 50  0  0  1  0  0  0  0  0999 V2000
   18.9520   35.7220   44.0700 C   0  0  0  0  0  0  0  0  0  0  0  0
   26.4590   37.3340   40.2500 C   0  0  0  0  0  0  0  0  0  0  0  0
   27.0140   37.4920   41.5090 C   0  0  0  0  0  0  0  0  0  0  0  0
   25.1400   36.9470   40.1040 C   0  0  0  0  0  0  0  0  0  0  0  0
   26.2860   37.2380   42.6470 C   0  0  0  0  0  0  0  0  0  0  0  0
   24.4040   36.7220   41.2430 C   0  0  0  0  0  0  0  0  0  0  0  0
   24.9800   36.8650   42.4760 C   0  0  0  0  0  0  0  0  0  0  0  0
   22.8550   36.2630   42.8980 C   0  0  0  0  0  0  0  0  0  0  0  0
   19.8280   36.5230   41.5710 C   0  0  0  0  0  0  0  0  0  0  0  0
   16.6880   32.9840   43.8880 C   0  0  0  0  0  0  0  0  0  0  0  0
   18.1270   32.8880   44.3350 C   0  0  0  0  0  0  0  0  0  0  0  0
   16.3240   34.3930   43.5000 C   0  0  0  0  0  0  0  0  0  0  0  0
   19.0430   33.4470   43.2650 C   0  0  0  0  0  0  0  0  0  0  0  0
   17.2640   34.9710   42.4650 C   0  0  0  0  0  0  0  0  0  0  0  0
   22.0230   37.4260   40.9120 C   0  0  0  0  0  0  0  0  0  0  0  0
   22.5960   35.0740   40.6400 C   0  0  0  0  0  0  0  0  0  0  0  0
   20.7970   36.6940   40.4220 C   0  0  1  0  0  0  0  0  0  0  0  0
   18.7100   34.8800   42.9040 C   0  0  0  0  0  0  0  0  0  0  0  0
   22.9760   36.3520   41.3810 C   0  0  1  0  0  0  0  0  0  0  0  0
   19.1480   36.3740   45.0110 N   0  0  0  0  0  0  0  0  0  0  0  0
   24.0700   36.5880   43.4650 N   0  0  0  0  0  0  0  0  0  0  0  0
   21.3330   35.3910   39.9090 N   0  0  0  0  0  0  0  0  0  0  0  0
   21.8390   35.9830   43.5300 O   0  0  0  0  0  0  0  0  0  0  0  0
   19.2240   37.4530   42.1000 O   0  0  0  0  0  0  0  0  0  0  0  0
   19.5900   35.2060   41.7890 O   0  0  0  0  0  0  0  0  0  0  0  0
   27.0639   37.5273   39.3787 H   0  0  0  0  0  0  0  0  0  0  0  0
   28.0443   37.7976   41.5968 H   0  0  0  0  0  0  0  0  0  0  0  0
   24.7103   36.8406   39.1198 H   0  0  0  0  0  0  0  0  0  0  0  0
   26.7328   37.3498   43.6246 H   0  0  0  0  0  0  0  0  0  0  0  0
   16.0281   32.6362   44.6841 H   0  0  0  0  0  0  0  0  0  0  0  0
   16.5184   32.3117   43.0456 H   0  0  0  0  0  0  0  0  0  0  0  0
   18.3816   31.8481   44.5356 H   0  0  0  0  0  0  0  0  0  0  0  0
   18.2662   33.4176   45.2793 H   0  0  0  0  0  0  0  0  0  0  0  0
   16.3131   35.0276   44.3880 H   0  0  0  0  0  0  0  0  0  0  0  0
   15.3031   34.4109   43.1168 H   0  0  0  0  0  0  0  0  0  0  0  0
   18.9874   32.8113   42.3779 H   0  0  0  0  0  0  0  0  0  0  0  0
   20.0775   33.3878   43.6056 H   0  0  0  0  0  0  0  0  0  0  0  0
   16.9949   36.0078   42.2704 H   0  0  0  0  0  0  0  0  0  0  0  0
   17.1315   34.4494   41.5162 H   0  0  0  0  0  0  0  0  0  0  0  0
   21.8245   38.2057   41.6391 H   0  0  0  0  0  0  0  0  0  0  0  0
   22.4429   37.9560   40.0537 H   0  0  0  0  0  0  0  0  0  0  0  0
   22.3902   34.2015   41.2634 H   0  0  0  0  0  0  0  0  0  0  0  0
   23.2913   34.8259   39.8500 H   0  0  0  0  0  0  0  0  0  0  0  0
   20.2871   37.1860   39.5971 H   0  0  0  0  0  0  0  0  0  0  0  0
   24.2575   36.6280   44.4589 H   0  0  0  0  0  0  0  0  0  0  0  0
   20.6558   34.6320   39.9159 H   0  0  0  0  0  0  0  0  0  0  0  0
   21.5780   35.5335   38.9313 H   0  0  0  0  0  0  0  0  0  0  0  0
  1 18  1  0
  1 20  3  0
  2  3  2  0
  2  4  1  0
  2 26  1  0
  3  5  1  0
  3 27  1  0
  4  6  2  0
  4 28  1  0
  5  7  2  0
  5 29  1  0
  6  7  1  0
  6 19  1  0
  7 21  1  0
  8 19  1  0
  8 21  1  0
  8 23  2  0
  9 17  1  0
  9 24  2  0
  9 25  1  0
 10 11  1  0
 10 12  1  0
 10 30  1  0
 10 31  1  0
 11 13  1  0
 11 32  1  0
 11 33  1  0
 12 14  1  0
 12 34  1  0
 12 35  1  0
 13 18  1  0
 13 36  1  0
 13 37  1  0
 14 18  1  0
 14 38  1  0
 14 39  1  0
 15 17  1  0
 19 15  1  6
 15 40  1  0
 15 41  1  0
 16 19  1  0
 16 22  1  0
 16 42  1  0
 16 43  1  0
 17 22  1  0
 17 44  1  6
 18 25  1  0
 21 45  1  0
 22 46  1  0
 22 47  1  0
M  CHG  1  22   1
M  END
$$$$
