4l
  PyMOL2.6          3D                             0

 36 38  0  0  0  0  0  0  0  0999 V2000
   40.9609   39.9618   68.5558 N   0  0  0  0  0  0  0  0  0  0  0  0
   40.1182   40.2927   67.5692 N   0  0  0  0  0  0  0  0  0  0  0  0
   40.3644   39.8883   66.2945 C   0  0  0  0  0  0  0  0  0  0  0  0
   41.5176   39.1014   66.0090 C   0  0  0  0  0  0  0  0  0  0  0  0
   42.3634   38.7854   67.0195 N   0  0  0  0  0  0  0  0  0  0  0  0
   42.0330   39.2350   68.2317 C   0  0  0  0  0  0  0  0  0  0  0  0
   37.3794   41.0100   63.3868 N   0  0  0  0  0  0  0  0  0  0  0  0
   38.6855   41.2624   63.1642 C   0  0  0  0  0  0  0  0  0  0  0  0
   39.7003   40.9418   64.0882 C   0  0  0  0  0  0  0  0  0  0  0  0
   39.3521   40.3152   65.3060 C   0  0  0  0  0  0  0  0  0  0  0  0
   37.9847   40.0649   65.5372 C   0  0  0  0  0  0  0  0  0  0  0  0
   37.0359   40.4334   64.5625 C   0  0  0  0  0  0  0  0  0  0  0  0
   42.5728   37.6625   62.0577 C   0  0  0  0  0  0  0  0  0  0  0  0
   41.2320   37.6623   62.4710 C   0  0  0  0  0  0  0  0  0  0  0  0
   40.8950   38.0915   63.7676 C   0  0  0  0  0  0  0  0  0  0  0  0
   41.8805   38.5695   64.6675 C   0  0  0  0  0  0  0  0  0  0  0  0
   43.2306   38.5282   64.2382 C   0  0  0  0  0  0  0  0  0  0  0  0
   43.5768   38.0821   62.9469 C   0  0  0  0  0  0  0  0  0  0  0  0
   42.8919   38.9290   69.2467 N   0  0  0  0  0  0  0  0  0  0  0  0
   35.5539   40.1713   64.7756 C   0  0  0  0  0  0  0  0  0  0  0  0
   39.0258   41.9088   61.8386 C   0  0  0  0  0  0  0  0  0  0  0  0
   40.7350   41.1548   63.8552 H   0  0  0  0  0  0  0  0  0  0  0  0
   37.6754   39.5770   66.4509 H   0  0  0  0  0  0  0  0  0  0  0  0
   42.8919   37.2614   60.8077 F   0  0  0  0  0  0  0  0  0  0  0  0
   40.4594   37.3260   61.7953 H   0  0  0  0  0  0  0  0  0  0  0  0
   39.8555   38.0614   64.0595 H   0  0  0  0  0  0  0  0  0  0  0  0
   44.0189   38.8646   64.8938 H   0  0  0  0  0  0  0  0  0  0  0  0
   44.6116   38.0726   62.6384 H   0  0  0  0  0  0  0  0  0  0  0  0
   43.7701   38.4630   69.0383 H   0  0  0  0  0  0  0  0  0  0  0  0
   42.7053   39.2344   70.2151 H   0  0  0  0  0  0  0  0  0  0  0  0
   35.2921   39.8617   66.0459 F   0  0  0  0  0  0  0  0  0  0  0  0
   34.8616   41.2625   64.4543 F   0  0  0  0  0  0  0  0  0  0  0  0
   35.1716   39.1588   64.0001 F   0  0  0  0  0  0  0  0  0  0  0  0
   39.9405   42.4974   61.9174 H   0  0  0  0  0  0  0  0  0  0  0  0
   38.2246   42.5722   61.5090 H   0  0  0  0  0  0  0  0  0  0  0  0
   39.1736   41.1425   61.0774 H   0  0  0  0  0  0  0  0  0  0  0  0
  1  2  1  0  0  0  0
  1  6  2  0  0  0  0
  2  3  2  0  0  0  0
  3  4  1  0  0  0  0
  3 10  1  0  0  0  0
  4  5  2  0  0  0  0
  4 16  1  0  0  0  0
  5  6  1  0  0  0  0
  6 19  1  0  0  0  0
  7  8  1  0  0  0  0
  7 12  2  0  0  0  0
  8  9  2  0  0  0  0
  8 21  1  0  0  0  0
  9 10  1  0  0  0  0
  9 22  1  0  0  0  0
 10 11  2  0  0  0  0
 11 12  1  0  0  0  0
 11 23  1  0  0  0  0
 12 20  1  0  0  0  0
 13 14  1  0  0  0  0
 13 18  2  0  0  0  0
 13 24  1  0  0  0  0
 14 15  2  0  0  0  0
 14 25  1  0  0  0  0
 15 16  1  0  0  0  0
 15 26  1  0  0  0  0
 16 17  2  0  0  0  0
 17 18  1  0  0  0  0
 17 27  1  0  0  0  0
 18 28  1  0  0  0  0
 19 29  1  0  0  0  0
 19 30  1  0  0  0  0
 20 31  1  0  0  0  0
 20 32  1  0  0  0  0
 20 33  1  0  0  0  0
 21 34  1  0  0  0  0
 21 35  1  0  0  0  0
 21 36  1  0  0  0  0
M  END
$$$$
