443_ref
     RDKit          3D

 58 61  0  0  1  0  0  0  0  0999 V2000
    1.8430   -9.1500  -16.5290 C   0  0  0  0  0  0  0  0  0  0  0  0
    4.4350   -8.0650  -16.3690 C   0  0  0  0  0  0  0  0  0  0  0  0
    6.1080   -7.5760  -14.7230 C   0  0  0  0  0  0  0  0  0  0  0  0
    6.3900   -3.9080  -14.3980 C   0  0  0  0  0  0  0  0  0  0  0  0
    5.4380   -3.4900  -15.3520 C   0  0  0  0  0  0  0  0  0  0  0  0
    4.9240   -5.7800  -15.8780 C   0  0  0  0  0  0  0  0  0  0  0  0
   -1.4730  -10.5620  -13.1870 C   0  0  0  0  0  0  0  0  0  0  0  0
   -0.6470  -10.9160  -10.8590 C   0  0  0  0  0  0  0  0  0  0  0  0
    0.9450  -11.1940  -12.7730 C   0  0  0  0  0  0  0  0  0  0  0  0
    0.0020   -9.4580   -8.8660 C   0  0  0  0  0  0  0  0  0  0  0  0
    2.4780   -9.0860  -14.1740 O   0  0  0  0  0  0  0  0  0  0  0  0
    1.7620   -9.8460  -15.1700 C   0  0  1  0  0  0  0  0  0  0  0  0
    3.4910   -9.2420  -17.2640 S   0  0  0  0  0  0  0  0  0  0  0  0
    4.0900  -10.5140  -16.9920 O   0  0  0  0  0  0  0  0  0  0  0  0
    3.3890   -8.7440  -18.5940 O   0  0  0  0  0  0  0  0  0  0  0  0
    5.3910   -8.4820  -15.4340 C   0  0  0  0  0  0  0  0  0  0  0  0
    5.8930   -6.2020  -14.9260 C   0  0  0  0  0  0  0  0  0  0  0  0
    6.6140   -5.2410  -14.2010 C   0  0  0  0  0  0  0  0  0  0  0  0
    7.2870   -2.7420  -13.4710 Cl  0  0  0  0  0  0  0  0  0  0  0  0
    4.7170   -4.3970  -16.0770 C   0  0  0  0  0  0  0  0  0  0  0  0
    4.2010   -6.7420  -16.6030 C   0  0  0  0  0  0  0  0  0  0  0  0
    0.3040   -9.9030  -14.7670 C   0  0  0  0  0  0  0  0  0  0  0  0
   -0.5350   -9.3670  -15.4730 O   0  0  0  0  0  0  0  0  0  0  0  0
   -0.0590  -10.5200  -13.6180 N   0  0  0  0  0  0  0  0  0  0  0  0
   -1.5500  -10.0320  -11.7370 C   0  0  0  0  0  0  0  0  0  0  0  0
    0.8120  -10.7620  -11.3100 C   0  0  0  0  0  0  0  0  0  0  0  0
   -0.7190  -10.6220   -9.4150 N   0  0  0  0  0  0  0  0  0  0  0  0
   -0.6430   -8.9470   -7.5730 C   0  0  0  0  0  0  0  0  0  0  0  0
   -0.8380  -10.1060   -6.5880 C   0  0  0  0  0  0  0  0  0  0  0  0
   -1.4890  -11.2330   -7.2580 N   0  0  0  0  0  0  0  0  0  0  0  0
   -1.4060  -11.4380   -8.5860 C   0  0  0  0  0  0  0  0  0  0  0  0
   -1.9810  -12.4010   -9.0530 O   0  0  0  0  0  0  0  0  0  0  0  0
    1.5634   -8.0961  -16.4900 H   0  0  0  0  0  0  0  0  0  0  0  0
    1.1989   -9.6351  -17.2648 H   0  0  0  0  0  0  0  0  0  0  0  0
    6.8450   -7.9041  -14.0041 H   0  0  0  0  0  0  0  0  0  0  0  0
    5.2615   -2.4410  -15.4924 H   0  0  0  0  0  0  0  0  0  0  0  0
   -1.8105  -11.5989  -13.2201 H   0  0  0  0  0  0  0  0  0  0  0  0
   -2.1361   -9.9626  -13.8126 H   0  0  0  0  0  0  0  0  0  0  0  0
   -0.9280  -11.9581  -11.0202 H   0  0  0  0  0  0  0  0  0  0  0  0
    1.9843  -11.1119  -13.0764 H   0  0  0  0  0  0  0  0  0  0  0  0
    0.7012  -12.2563  -12.8227 H   0  0  0  0  0  0  0  0  0  0  0  0
    0.1696   -8.6904   -9.6168 H   0  0  0  0  0  0  0  0  0  0  0  0
    0.9881   -9.8335   -8.5890 H   0  0  0  0  0  0  0  0  0  0  0  0
    3.2031   -9.6209  -13.8307 H   0  0  0  0  0  0  0  0  0  0  0  0
    2.1600  -10.8595  -15.2400 H   0  0  0  0  0  0  0  0  0  0  0  0
    5.5745   -9.5329  -15.2686 H   0  0  0  0  0  0  0  0  0  0  0  0
    7.3101   -5.5645  -13.4441 H   0  0  0  0  0  0  0  0  0  0  0  0
    3.9892   -4.0618  -16.8027 H   0  0  0  0  0  0  0  0  0  0  0  0
    3.4814   -6.4274  -17.3389 H   0  0  0  0  0  0  0  0  0  0  0  0
   -2.5818  -10.1054  -11.3930 H   0  0  0  0  0  0  0  0  0  0  0  0
   -1.2840   -8.9752  -11.6715 H   0  0  0  0  0  0  0  0  0  0  0  0
    1.4738  -11.3756  -10.6982 H   0  0  0  0  0  0  0  0  0  0  0  0
    1.1687   -9.7392  -11.2132 H   0  0  0  0  0  0  0  0  0  0  0  0
   -1.5898   -8.4643   -7.8021 H   0  0  0  0  0  0  0  0  0  0  0  0
   -0.0247   -8.1727   -7.1193 H   0  0  0  0  0  0  0  0  0  0  0  0
   -1.4198   -9.7998   -5.7180 H   0  0  0  0  0  0  0  0  0  0  0  0
    0.1275  -10.4706   -6.2441 H   0  0  0  0  0  0  0  0  0  0  0  0
   -2.1241  -11.8111   -6.7267 H   0  0  0  0  0  0  0  0  0  0  0  0
  1 12  1  0
  1 13  1  0
  1 33  1  0
  1 34  1  0
  2 13  1  0
  2 16  1  0
  2 21  2  0
  3 16  2  0
  3 17  1  0
  3 35  1  0
  4  5  1  0
  4 18  2  0
  4 19  1  0
  5 20  2  0
  5 36  1  0
  6 17  2  0
  6 20  1  0
  6 21  1  0
  7 24  1  0
  7 25  1  0
  7 37  1  0
  7 38  1  0
  8 25  1  0
  8 26  1  0
  8 27  1  0
  8 39  1  0
  9 24  1  0
  9 26  1  0
  9 40  1  0
  9 41  1  0
 10 27  1  0
 10 28  1  0
 10 42  1  0
 10 43  1  0
 11 12  1  0
 11 44  1  0
 12 22  1  0
 12 45  1  6
 13 14  2  0
 13 15  2  0
 16 46  1  0
 17 18  1  0
 18 47  1  0
 20 48  1  0
 21 49  1  0
 22 23  2  0
 22 24  1  0
 25 50  1  0
 25 51  1  0
 26 52  1  0
 26 53  1  0
 27 31  1  0
 28 29  1  0
 28 54  1  0
 28 55  1  0
 29 30  1  0
 29 56  1  0
 29 57  1  0
 30 31  1  0
 30 58  1  0
 31 32  2  0
M  END
$$$$
