9G5_ref
     RDKit          3D

 58 62  0  0  1  0  0  0  0  0999 V2000
  -72.0440   44.3040  -10.0740 N   0  0  0  0  0  0  0  0  0  0  0  0
  -70.7680   44.8880  -10.4870 C   0  0  0  0  0  0  0  0  0  0  0  0
  -71.1430   45.9540  -11.5290 C   0  0  0  0  0  0  0  0  0  0  0  0
  -72.8510   44.8550   -9.1320 C   0  0  0  0  0  0  0  0  0  0  0  0
  -72.4390   45.1060   -7.6910 C   0  0  0  0  0  0  0  0  0  0  0  0
  -72.8030   44.2230   -6.6840 C   0  0  0  0  0  0  0  0  0  0  0  0
  -71.7680   45.6470   -5.0180 C   0  0  0  0  0  0  0  0  0  0  0  0
  -70.6570   47.7240   -5.6850 C   0  0  0  0  0  0  0  0  0  0  0  0
  -69.4680   49.6150   -5.8590 C   0  0  0  0  0  0  0  0  0  0  0  0
  -69.6460   50.3130   -3.4560 C   0  0  0  0  0  0  0  0  0  0  0  0
  -70.5340   49.3200    0.0650 C   0  0  0  0  0  0  0  0  0  0  0  0
  -70.9870   48.4100    0.9880 C   0  0  0  0  0  0  0  0  0  0  0  0
  -71.3630   47.1250    0.6330 C   0  0  0  0  0  0  0  0  0  0  0  0
  -70.7990   47.5850   -1.6390 C   0  0  0  0  0  0  0  0  0  0  0  0
  -69.3710   52.2790   -1.2500 O   0  0  0  0  0  0  0  0  0  0  0  0
  -69.7840   51.0730   -1.0170 C   0  0  0  0  0  0  0  0  0  0  0  0
  -70.1470   50.6180    0.1890 N   0  0  0  0  0  0  0  0  0  0  0  0
  -71.2310   46.7360   -0.6640 C   0  0  0  0  0  0  0  0  0  0  0  0
  -71.7290   45.0910   -1.0790 Cl  0  0  0  0  0  0  0  0  0  0  0  0
  -70.4560   48.8930   -1.3210 C   0  0  0  0  0  0  0  0  0  0  0  0
  -69.9240   50.0750   -2.0260 C   0  0  0  0  0  0  0  0  0  0  0  0
  -69.8460   49.3650   -4.5620 C   0  0  0  0  0  0  0  0  0  0  0  0
  -69.9210   48.5180   -6.5620 C   0  0  0  0  0  0  0  0  0  0  0  0
  -70.6520   48.2960   -4.4360 O   0  0  0  0  0  0  0  0  0  0  0  0
  -71.3840   46.4940   -6.0210 C   0  0  0  0  0  0  0  0  0  0  0  0
  -72.4510   44.4930   -5.3600 C   0  0  0  0  0  0  0  0  0  0  0  0
  -71.7520   46.2620   -7.3420 C   0  0  0  0  0  0  0  0  0  0  0  0
  -73.9970   45.2320   -9.4320 O   0  0  0  0  0  0  0  0  0  0  0  0
  -72.4260   43.1450  -10.8610 C   0  0  0  0  0  0  0  0  0  0  0  0
  -72.9100   43.7510  -12.1840 C   0  0  0  0  0  0  0  0  0  0  0  0
  -71.7590   44.1110  -13.1360 C   0  0  0  0  0  0  0  0  0  0  0  0
  -71.0900   45.4290  -12.9110 N   0  0  1  0  0  0  0  0  0  0  0  0
  -71.5390   46.4610  -13.8760 C   0  0  0  0  0  0  0  0  0  0  0  0
  -70.0262   44.1513  -10.7999 H   0  0  0  0  0  0  0  0  0  0  0  0
  -70.3211   45.3899   -9.6270 H   0  0  0  0  0  0  0  0  0  0  0  0
  -70.4025   46.7557  -11.5145 H   0  0  0  0  0  0  0  0  0  0  0  0
  -72.1054   46.4155  -11.3704 H   0  0  0  0  0  0  0  0  0  0  0  0
  -73.3309   43.3086   -6.9168 H   0  0  0  0  0  0  0  0  0  0  0  0
  -71.4965   45.8169   -3.9900 H   0  0  0  0  0  0  0  0  0  0  0  0
  -68.9027   50.4546   -6.2357 H   0  0  0  0  0  0  0  0  0  0  0  0
  -69.2554   51.2744   -3.7633 H   0  0  0  0  0  0  0  0  0  0  0  0
  -71.0709   48.6957    2.0255 H   0  0  0  0  0  0  0  0  0  0  0  0
  -71.7177   46.4325    1.3823 H   0  0  0  0  0  0  0  0  0  0  0  0
  -70.6759   47.1524   -2.6058 H   0  0  0  0  0  0  0  0  0  0  0  0
  -70.1699   51.1657    1.0378 H   0  0  0  0  0  0  0  0  0  0  0  0
  -69.7619   48.3406   -7.6154 H   0  0  0  0  0  0  0  0  0  0  0  0
  -72.5869   43.7895   -4.5651 H   0  0  0  0  0  0  0  0  0  0  0  0
  -71.4953   46.9731   -8.1148 H   0  0  0  0  0  0  0  0  0  0  0  0
  -73.2395   42.6048  -10.3722 H   0  0  0  0  0  0  0  0  0  0  0  0
  -71.6143   42.4209  -10.9466 H   0  0  0  0  0  0  0  0  0  0  0  0
  -73.6083   44.5813  -12.0536 H   0  0  0  0  0  0  0  0  0  0  0  0
  -73.4914   42.9795  -12.6896 H   0  0  0  0  0  0  0  0  0  0  0  0
  -72.0764   44.0776  -14.1804 H   0  0  0  0  0  0  0  0  0  0  0  0
  -70.9457   43.3899  -13.0422 H   0  0  0  0  0  0  0  0  0  0  0  0
  -70.1116   45.2754  -13.1140 H   0  0  0  0  0  0  0  0  0  0  0  0
  -71.2615   46.1187  -14.8741 H   0  0  0  0  0  0  0  0  0  0  0  0
  -72.6198   46.5501  -13.7841 H   0  0  0  0  0  0  0  0  0  0  0  0
  -71.0382   47.4046  -13.6516 H   0  0  0  0  0  0  0  0  0  0  0  0
  1  2  1  0
  1  4  1  0
  1 29  1  0
  2  3  1  0
  2 34  1  0
  2 35  1  0
  3 32  1  0
  3 36  1  0
  3 37  1  0
  4  5  1  0
  4 28  2  0
  5  6  2  0
  5 27  1  0
  6 26  1  0
  6 38  1  0
  7 25  1  0
  7 26  2  0
  7 39  1  0
  8 23  2  0
  8 24  1  0
  8 25  1  0
  9 22  2  0
  9 23  1  0
  9 40  1  0
 10 21  2  0
 10 22  1  0
 10 41  1  0
 11 12  2  0
 11 17  1  0
 11 20  1  0
 12 13  1  0
 12 42  1  0
 13 18  2  0
 13 43  1  0
 14 18  1  0
 14 20  2  0
 14 44  1  0
 15 16  2  0
 16 17  1  0
 16 21  1  0
 17 45  1  0
 18 19  1  0
 20 21  1  0
 22 24  1  0
 23 46  1  0
 25 27  2  0
 26 47  1  0
 27 48  1  0
 29 30  1  0
 29 49  1  0
 29 50  1  0
 30 31  1  0
 30 51  1  0
 30 52  1  0
 31 32  1  0
 31 53  1  0
 31 54  1  0
 32 33  1  0
 32 55  1  6
 33 56  1  0
 33 57  1  0
 33 58  1  0
M  CHG  1  32   1
M  END
$$$$
