VU7_ref
     RDKit          3D

 48 51  0  0  1  0  0  0  0  0999 V2000
  -31.7580   17.9140   27.0580 C   0  0  0  0  0  0  0  0  0  0  0  0
  -30.8910   21.1050   25.9010 C   0  0  0  0  0  0  0  0  0  0  0  0
  -30.2900   21.6070   24.6470 C   0  0  0  0  0  0  0  0  0  0  0  0
  -28.9120   21.8630   24.5510 C   0  0  0  0  0  0  0  0  0  0  0  0
  -28.0270   21.7110   25.7820 C   0  0  0  0  0  0  0  0  0  0  0  0
  -29.2240   22.4540   22.2140 N   0  0  0  0  0  0  0  0  0  0  0  0
  -30.5270   22.1990   22.2210 C   0  0  0  0  0  0  0  0  0  0  0  0
  -31.3110   22.3540   21.0450 C   0  0  0  0  0  0  0  0  0  0  0  0
  -32.5330   21.4850   23.4260 C   0  0  0  0  0  0  0  0  0  0  0  0
  -31.1460   21.7590   23.4460 C   0  0  0  0  0  0  0  0  0  0  0  0
  -27.0270   22.6100   22.9760 C   0  0  0  0  0  0  0  0  0  0  0  0
  -26.4120   21.9100   21.9100 C   0  0  0  0  0  0  0  0  0  0  0  0
  -24.3840   23.1450   22.2800 C   0  0  0  0  0  0  0  0  0  0  0  0
  -26.3100   23.5990   23.6770 C   0  0  0  0  0  0  0  0  0  0  0  0
  -23.0140   23.5460   21.9230 C   0  0  0  0  0  0  0  0  0  0  0  0
  -20.4720   24.4440   21.2090 C   0  0  0  0  0  0  0  0  0  0  0  0
  -31.1990   19.1970   27.3570 O   0  0  0  0  0  0  0  0  0  0  0  0
  -30.6490   19.8140   26.2130 N   0  0  0  0  0  0  0  0  0  0  0  0
  -31.6030   21.7870   26.5920 O   0  0  0  0  0  0  0  0  0  0  0  0
  -28.4290   22.2990   23.2770 C   0  0  0  0  0  0  0  0  0  0  0  0
  -32.6430   22.0590   21.0820 C   0  0  0  0  0  0  0  0  0  0  0  0
  -33.2450   21.6300   22.2720 C   0  0  0  0  0  0  0  0  0  0  0  0
  -34.5490   21.3370   22.2850 F   0  0  0  0  0  0  0  0  0  0  0  0
  -25.1010   22.1660   21.5620 C   0  0  0  0  0  0  0  0  0  0  0  0
  -25.0050   23.8590   23.3170 C   0  0  0  0  0  0  0  0  0  0  0  0
  -21.9800   23.5670   22.8800 C   0  0  0  0  0  0  0  0  0  0  0  0
  -20.7100   24.0020   22.5110 C   0  0  0  0  0  0  0  0  0  0  0  0
  -21.5030   24.4510   20.2650 C   0  0  0  0  0  0  0  0  0  0  0  0
  -22.7750   24.0200   20.6150 C   0  0  0  0  0  0  0  0  0  0  0  0
  -23.7490   24.0310   19.6750 F   0  0  0  0  0  0  0  0  0  0  0  0
  -32.1169   17.4406   27.9710 H   0  0  0  0  0  0  0  0  0  0  0  0
  -32.5969   17.9988   26.3659 H   0  0  0  0  0  0  0  0  0  0  0  0
  -31.0077   17.2623   26.6084 H   0  0  0  0  0  0  0  0  0  0  0  0
  -26.9770   21.9105   25.5842 H   0  0  0  0  0  0  0  0  0  0  0  0
  -28.3488   22.3987   26.5645 H   0  0  0  0  0  0  0  0  0  0  0  0
  -28.0842   20.7114   26.2060 H   0  0  0  0  0  0  0  0  0  0  0  0
  -30.8477   22.6906   20.1282 H   0  0  0  0  0  0  0  0  0  0  0  0
  -33.0424   21.1486   24.3173 H   0  0  0  0  0  0  0  0  0  0  0  0
  -26.9596   21.1583   21.3588 H   0  0  0  0  0  0  0  0  0  0  0  0
  -26.7764   24.1624   24.4727 H   0  0  0  0  0  0  0  0  0  0  0  0
  -19.4859   24.7853   20.9318 H   0  0  0  0  0  0  0  0  0  0  0  0
  -29.8581   19.2963   25.8514 H   0  0  0  0  0  0  0  0  0  0  0  0
  -33.2478   22.1732   20.1975 H   0  0  0  0  0  0  0  0  0  0  0  0
  -24.6410   21.6288   20.7447 H   0  0  0  0  0  0  0  0  0  0  0  0
  -24.4667   24.6346   23.8430 H   0  0  0  0  0  0  0  0  0  0  0  0
  -22.1621   23.2364   23.8933 H   0  0  0  0  0  0  0  0  0  0  0  0
  -19.9128   24.0201   23.2394 H   0  0  0  0  0  0  0  0  0  0  0  0
  -21.3242   24.8168   19.2649 H   0  0  0  0  0  0  0  0  0  0  0  0
  1 17  1  0
  1 31  1  0
  1 32  1  0
  1 33  1  0
  2  3  1  0
  2 18  1  0
  2 19  2  0
  3  4  2  0
  3 10  1  0
  4  5  1  0
  4 20  1  0
  5 34  1  0
  5 35  1  0
  5 36  1  0
  6  7  1  0
  6 20  2  0
  7  8  1  0
  7 10  2  0
  8 21  2  0
  8 37  1  0
  9 10  1  0
  9 22  2  0
  9 38  1  0
 11 12  2  0
 11 14  1  0
 11 20  1  0
 12 24  1  0
 12 39  1  0
 13 15  1  0
 13 24  2  0
 13 25  1  0
 14 25  2  0
 14 40  1  0
 15 26  2  0
 15 29  1  0
 16 27  2  0
 16 28  1  0
 16 41  1  0
 17 18  1  0
 18 42  1  0
 21 22  1  0
 21 43  1  0
 22 23  1  0
 24 44  1  0
 25 45  1  0
 26 27  1  0
 26 46  1  0
 27 47  1  0
 28 29  2  0
 28 48  1  0
 29 30  1  0
M  END
$$$$
