0SY_ref
     RDKit          3D

 27 29  0  0  1  0  0  0  0  0999 V2000
   29.7390  -14.6770   29.5450 C   0  0  0  0  0  0  0  0  0  0  0  0
   30.8010  -13.9400   29.9520 C   0  0  0  0  0  0  0  0  0  0  0  0
   32.1250  -14.1920   30.0620 C   0  0  0  0  0  0  0  0  0  0  0  0
   32.5970  -15.3010   29.8240 O   0  0  0  0  0  0  0  0  0  0  0  0
   33.0210  -13.2150   30.5070 N   0  0  0  0  0  0  0  0  0  0  0  0
   32.5980  -11.8600   30.8800 C   0  0  0  0  0  0  0  0  0  0  0  0
   31.1080  -11.6280   30.7450 C   0  0  0  0  0  0  0  0  0  0  0  0
   30.3120  -12.7150   30.2790 C   0  0  0  0  0  0  0  0  0  0  0  0
   28.9890  -12.6570   30.0750 N   0  0  0  0  0  0  0  0  0  0  0  0
   28.6480  -13.8580   29.5750 C   0  0  0  0  0  0  0  0  0  0  0  0
   27.3660  -14.1920   29.2880 C   0  0  0  0  0  0  0  0  0  0  0  0
   26.9790  -15.5060   28.9740 C   0  0  0  0  0  0  0  0  0  0  0  0
   25.6440  -15.8160   28.7100 C   0  0  0  0  0  0  0  0  0  0  0  0
   24.6630  -14.8090   28.7670 N   0  0  0  0  0  0  0  0  0  0  0  0
   25.0400  -13.4710   29.0820 C   0  0  0  0  0  0  0  0  0  0  0  0
   26.3840  -13.1920   29.3370 C   0  0  0  0  0  0  0  0  0  0  0  0
   29.7792  -15.7093   29.2290 H   0  0  0  0  0  0  0  0  0  0  0  0
   33.9849  -13.4838   30.6983 H   0  0  0  0  0  0  0  0  0  0  0  0
   33.1509  -11.1547   30.2578 H   0  0  0  0  0  0  0  0  0  0  0  0
   32.9223  -11.6788   31.9063 H   0  0  0  0  0  0  0  0  0  0  0  0
   30.9501  -10.7651   30.0959 H   0  0  0  0  0  0  0  0  0  0  0  0
   30.7299  -11.3303   31.7248 H   0  0  0  0  0  0  0  0  0  0  0  0
   28.3766  -11.8741   30.2742 H   0  0  0  0  0  0  0  0  0  0  0  0
   27.6995  -16.3079   28.9326 H   0  0  0  0  0  0  0  0  0  0  0  0
   25.3257  -16.8152   28.4521 H   0  0  0  0  0  0  0  0  0  0  0  0
   24.2690  -12.7144   29.1069 H   0  0  0  0  0  0  0  0  0  0  0  0
   26.6200  -12.1625   29.5389 H   0  0  0  0  0  0  0  0  0  0  0  0
  1  2  1  0
  1 10  2  0
  1 17  1  0
  2  3  1  0
  2  8  2  0
  3  4  2  0
  3  5  1  0
  5  6  1  0
  5 18  1  0
  6  7  1  0
  6 19  1  0
  6 20  1  0
  7  8  1  0
  7 21  1  0
  7 22  1  0
  8  9  1  0
  9 10  1  0
  9 23  1  0
 10 11  1  0
 11 12  2  0
 11 16  1  0
 12 13  1  0
 12 24  1  0
 13 14  2  0
 13 25  1  0
 14 15  1  0
 15 16  2  0
 15 26  1  0
 16 27  1  0
M  END
$$$$
