67B_ref
     RDKit          3D

 39 41  0  0  1  0  0  0  0  0999 V2000
  -14.9500   -0.3860   10.2200 C   0  0  0  0  0  0  0  0  0  0  0  0
  -15.0510   -0.4560    7.7270 C   0  0  0  0  0  0  0  0  0  0  0  0
  -14.6270    0.1380    5.4130 C   0  0  0  0  0  0  0  0  0  0  0  0
  -14.7070   -1.0290   11.4230 C   0  0  0  0  0  0  0  0  0  0  0  0
  -14.3760   -2.4330    9.0980 C   0  0  0  0  0  0  0  0  0  0  0  0
  -13.6580   -4.4860   10.2790 C   0  0  0  0  0  0  0  0  0  0  0  0
  -14.2920   -2.3570   11.4830 C   0  0  0  0  0  0  0  0  0  0  0  0
  -12.6530   -4.8560   11.1250 C   0  0  0  0  0  0  0  0  0  0  0  0
  -11.0340   -6.3960   12.0710 C   0  0  0  0  0  0  0  0  0  0  0  0
  -12.0690   -8.2200   10.3350 O   0  0  0  0  0  0  0  0  0  0  0  0
  -12.5660   -7.0890   10.3080 C   0  0  0  0  0  0  0  0  0  0  0  0
  -12.1340   -6.1180   11.1370 N   0  0  0  0  0  0  0  0  0  0  0  0
  -13.6070   -6.8040    9.4080 C   0  0  0  0  0  0  0  0  0  0  0  0
  -14.2510   -7.5610    8.4690 N   0  0  0  0  0  0  0  0  0  0  0  0
  -15.1900   -6.7880    7.8530 C   0  0  0  0  0  0  0  0  0  0  0  0
  -15.1750   -5.5420    8.3720 C   0  0  0  0  0  0  0  0  0  0  0  0
  -14.1760   -5.5140    9.3660 C   0  0  0  0  0  0  0  0  0  0  0  0
  -14.1310   -3.0770   10.3000 C   0  0  0  0  0  0  0  0  0  0  0  0
  -14.7690   -1.0940    9.0330 C   0  0  0  0  0  0  0  0  0  0  0  0
  -16.1090    0.1290    7.6120 O   0  0  0  0  0  0  0  0  0  0  0  0
  -14.2120   -0.5080    6.6610 N   0  0  0  0  0  0  0  0  0  0  0  0
  -12.8920   -1.1610    6.6730 C   0  0  0  0  0  0  0  0  0  0  0  0
  -15.3048    0.6294   10.2209 H   0  0  0  0  0  0  0  0  0  0  0  0
  -14.3622   -0.5007    4.5698 H   0  0  0  0  0  0  0  0  0  0  0  0
  -15.6968    0.3245    5.3238 H   0  0  0  0  0  0  0  0  0  0  0  0
  -14.0992    1.0839    5.2875 H   0  0  0  0  0  0  0  0  0  0  0  0
  -14.8507   -0.4856   12.3453 H   0  0  0  0  0  0  0  0  0  0  0  0
  -14.2419   -2.9838    8.1780 H   0  0  0  0  0  0  0  0  0  0  0  0
  -14.1191   -2.8343   12.4332 H   0  0  0  0  0  0  0  0  0  0  0  0
  -12.1744   -4.1866   11.8251 H   0  0  0  0  0  0  0  0  0  0  0  0
  -10.4465   -7.2757   11.8091 H   0  0  0  0  0  0  0  0  0  0  0  0
  -10.3364   -5.5580   12.0879 H   0  0  0  0  0  0  0  0  0  0  0  0
  -11.4112   -6.5298   13.0839 H   0  0  0  0  0  0  0  0  0  0  0  0
  -14.0466   -8.5274    8.2475 H   0  0  0  0  0  0  0  0  0  0  0  0
  -15.8006   -7.2172    7.0717 H   0  0  0  0  0  0  0  0  0  0  0  0
  -15.8159   -4.7228    8.0800 H   0  0  0  0  0  0  0  0  0  0  0  0
  -12.1449   -0.4849    6.2557 H   0  0  0  0  0  0  0  0  0  0  0  0
  -12.5434   -1.4289    7.6691 H   0  0  0  0  0  0  0  0  0  0  0  0
  -12.9080   -2.0606    6.0570 H   0  0  0  0  0  0  0  0  0  0  0  0
  1  4  2  0
  1 19  1  0
  1 23  1  0
  2 19  1  0
  2 20  2  0
  2 21  1  0
  3 21  1  0
  3 24  1  0
  3 25  1  0
  3 26  1  0
  4  7  1  0
  4 27  1  0
  5 18  1  0
  5 19  2  0
  5 28  1  0
  6  8  2  0
  6 17  1  0
  6 18  1  0
  7 18  2  0
  7 29  1  0
  8 12  1  0
  8 30  1  0
  9 12  1  0
  9 31  1  0
  9 32  1  0
  9 33  1  0
 10 11  2  0
 11 12  1  0
 11 13  1  0
 13 14  1  0
 13 17  2  0
 14 15  1  0
 14 34  1  0
 15 16  2  0
 15 35  1  0
 16 17  1  0
 16 36  1  0
 21 22  1  0
 22 37  1  0
 22 38  1  0
 22 39  1  0
M  END
$$$$
