9GY_ref
     RDKit          3D

 54 57  0  0  1  0  0  0  0  0999 V2000
   -2.9120   42.9540  -55.5210 C   0  0  0  0  0  0  0  0  0  0  0  0
   -2.6140   42.0290  -54.4020 N   0  0  0  0  0  0  0  0  0  0  0  0
   -3.5020   41.0290  -54.1370 C   0  0  0  0  0  0  0  0  0  0  0  0
   -4.5400   40.8550  -54.7760 O   0  0  0  0  0  0  0  0  0  0  0  0
   -3.1980   40.1620  -53.0730 C   0  0  0  0  0  0  0  0  0  0  0  0
   -4.2250   39.4800  -52.3910 C   0  0  0  0  0  0  0  0  0  0  0  0
   -1.8830   39.9810  -52.6570 C   0  0  0  0  0  0  0  0  0  0  0  0
   -1.5820   39.1250  -51.5990 C   0  0  0  0  0  0  0  0  0  0  0  0
   -2.6080   38.4480  -50.9360 C   0  0  0  0  0  0  0  0  0  0  0  0
   -3.9410   38.6120  -51.3230 C   0  0  0  0  0  0  0  0  0  0  0  0
   -4.9720   37.9330  -50.6200 C   0  0  0  0  0  0  0  0  0  0  0  0
   -6.2450   37.6910  -51.1780 C   0  0  0  0  0  0  0  0  0  0  0  0
   -7.2370   37.0020  -50.4530 C   0  0  0  0  0  0  0  0  0  0  0  0
   -4.7380   37.5140  -49.2950 C   0  0  0  0  0  0  0  0  0  0  0  0
   -5.7370   36.8620  -48.5670 C   0  0  0  0  0  0  0  0  0  0  0  0
   -6.9880   36.6010  -49.1310 C   0  0  0  0  0  0  0  0  0  0  0  0
   -7.9960   35.9860  -48.4390 N   0  0  0  0  0  0  0  0  0  0  0  0
   -7.8780   34.9190  -47.5960 C   0  0  0  0  0  0  0  0  0  0  0  0
   -8.8440   34.4600  -46.9910 O   0  0  0  0  0  0  0  0  0  0  0  0
   -6.4870   34.3220  -47.3460 C   0  0  0  0  0  0  0  0  0  0  0  0
   -9.3890   36.5250  -48.6500 C   0  0  1  0  0  0  0  0  0  0  0  0
   -9.8680   37.4330  -47.5340 C   0  0  0  0  0  0  0  0  0  0  0  0
   -9.4960   37.3010  -49.9740 C   0  0  0  0  0  0  0  0  0  0  0  0
   -8.4940   36.7760  -50.9160 N   0  0  0  0  0  0  0  0  0  0  0  0
   -8.9550   36.2230  -52.0830 C   0  0  0  0  0  0  0  0  0  0  0  0
  -10.1760   36.1470  -52.2680 O   0  0  0  0  0  0  0  0  0  0  0  0
   -8.2120   35.5870  -53.0180 C   0  0  0  0  0  0  0  0  0  0  0  0
   -6.9320   35.3280  -52.9790 O   0  0  0  0  0  0  0  0  0  0  0  0
   -6.6250   34.5980  -54.1390 C   0  0  0  0  0  0  0  0  0  0  0  0
   -7.7720   34.4320  -54.8020 C   0  0  0  0  0  0  0  0  0  0  0  0
   -8.7440   35.0190  -54.1080 C   0  0  0  0  0  0  0  0  0  0  0  0
   -2.1679   43.7499  -55.5517 H   0  0  0  0  0  0  0  0  0  0  0  0
   -2.8838   42.4287  -56.4767 H   0  0  0  0  0  0  0  0  0  0  0  0
   -3.8937   43.4170  -55.4063 H   0  0  0  0  0  0  0  0  0  0  0  0
   -1.7172   42.0794  -53.9410 H   0  0  0  0  0  0  0  0  0  0  0  0
   -5.2510   39.6469  -52.6861 H   0  0  0  0  0  0  0  0  0  0  0  0
   -1.0534   40.4711  -53.1471 H   0  0  0  0  0  0  0  0  0  0  0  0
   -0.5555   38.9780  -51.2961 H   0  0  0  0  0  0  0  0  0  0  0  0
   -2.3072   37.7778  -50.1464 H   0  0  0  0  0  0  0  0  0  0  0  0
   -6.4758   37.9989  -52.1865 H   0  0  0  0  0  0  0  0  0  0  0  0
   -3.8230   37.7314  -48.7742 H   0  0  0  0  0  0  0  0  0  0  0  0
   -5.5208   36.6363  -47.5412 H   0  0  0  0  0  0  0  0  0  0  0  0
   -6.6069   33.2817  -47.0448 H   0  0  0  0  0  0  0  0  0  0  0  0
   -5.8578   34.3020  -48.2352 H   0  0  0  0  0  0  0  0  0  0  0  0
   -5.9757   34.8206  -46.5236 H   0  0  0  0  0  0  0  0  0  0  0  0
  -10.0956   35.6951  -48.7170 H   0  0  0  0  0  0  0  0  0  0  0  0
  -10.8373   37.8698  -47.7751 H   0  0  0  0  0  0  0  0  0  0  0  0
   -9.9978   36.8878  -46.5991 H   0  0  0  0  0  0  0  0  0  0  0  0
   -9.1758   38.2578  -47.3612 H   0  0  0  0  0  0  0  0  0  0  0  0
   -9.2868   38.3633  -49.8294 H   0  0  0  0  0  0  0  0  0  0  0  0
  -10.5292   37.2673  -50.3228 H   0  0  0  0  0  0  0  0  0  0  0  0
   -5.6147   34.2498  -54.2645 H   0  0  0  0  0  0  0  0  0  0  0  0
   -7.8954   33.8844  -55.7247 H   0  0  0  0  0  0  0  0  0  0  0  0
   -9.7821   35.0221  -54.4105 H   0  0  0  0  0  0  0  0  0  0  0  0
  1  2  1  0
  1 32  1  0
  1 33  1  0
  1 34  1  0
  2  3  1  0
  2 35  1  0
  3  4  2  0
  3  5  1  0
  5  6  2  0
  5  7  1  0
  6 10  1  0
  6 36  1  0
  7  8  2  0
  7 37  1  0
  8  9  1  0
  8 38  1  0
  9 10  2  0
  9 39  1  0
 10 11  1  0
 11 12  2  0
 11 14  1  0
 12 13  1  0
 12 40  1  0
 13 16  2  0
 13 24  1  0
 14 15  2  0
 14 41  1  0
 15 16  1  0
 15 42  1  0
 16 17  1  0
 17 18  1  0
 17 21  1  0
 18 19  2  0
 18 20  1  0
 20 43  1  0
 20 44  1  0
 20 45  1  0
 21 22  1  0
 21 23  1  0
 21 46  1  6
 22 47  1  0
 22 48  1  0
 22 49  1  0
 23 24  1  0
 23 50  1  0
 23 51  1  0
 24 25  1  0
 25 26  2  0
 25 27  1  0
 27 28  1  0
 27 31  2  0
 28 29  1  0
 29 30  2  0
 29 52  1  0
 30 31  1  0
 30 53  1  0
 31 54  1  0
M  END
$$$$
