7AC_ref
     RDKit          3D

 35 37  0  0  1  0  0  0  0  0999 V2000
  -85.5650   10.5760  -46.6480 C   0  0  0  0  0  0  0  0  0  0  0  0
  -85.1070   11.6670  -45.9090 C   0  0  0  0  0  0  0  0  0  0  0  0
  -83.9720   12.3480  -46.3410 C   0  0  0  0  0  0  0  0  0  0  0  0
  -83.4740   13.4780  -45.6060 C   0  0  0  0  0  0  0  0  0  0  0  0
  -83.3050   11.9550  -47.5310 C   0  0  0  0  0  0  0  0  0  0  0  0
  -80.8400   14.5240  -48.8680 C   0  0  0  0  0  0  0  0  0  0  0  0
  -79.6710   12.8250  -47.6490 C   0  0  0  0  0  0  0  0  0  0  0  0
  -84.8960   10.1630  -47.8310 C   0  0  0  0  0  0  0  0  0  0  0  0
  -85.3800    8.2470  -49.4650 C   0  0  0  0  0  0  0  0  0  0  0  0
  -85.6210    9.0690  -48.2830 N   0  0  0  0  0  0  0  0  0  0  0  0
  -86.6420    8.8580  -47.4150 C   0  0  0  0  0  0  0  0  0  0  0  0
  -86.6150    9.7400  -46.4630 N   0  0  0  0  0  0  0  0  0  0  0  0
  -83.0540   14.3760  -45.0470 N   0  0  0  0  0  0  0  0  0  0  0  0
  -82.0820   12.7180  -47.8930 C   0  0  0  0  0  0  0  0  0  0  0  0
  -82.0560   13.9030  -48.6240 C   0  0  0  0  0  0  0  0  0  0  0  0
  -79.6490   13.9960  -48.3920 C   0  0  0  0  0  0  0  0  0  0  0  0
  -80.8820   12.1960  -47.4010 C   0  0  0  0  0  0  0  0  0  0  0  0
  -80.9510   10.7220  -46.4840 Cl  0  0  0  0  0  0  0  0  0  0  0  0
  -83.7580   10.8570  -48.2670 C   0  0  0  0  0  0  0  0  0  0  0  0
  -83.0150   10.4600  -49.5190 C   0  0  0  0  0  0  0  0  0  0  0  0
  -82.3160    9.1860  -49.3470 N   0  0  0  0  0  0  0  0  0  0  0  0
  -85.6271   11.9704  -45.0110 H   0  0  0  0  0  0  0  0  0  0  0  0
  -80.7350   15.2527  -49.6238 H   0  0  0  0  0  0  0  0  0  0  0  0
  -78.7521   12.3943  -47.2860 H   0  0  0  0  0  0  0  0  0  0  0  0
  -86.2279    7.5802  -49.6275 H   0  0  0  0  0  0  0  0  0  0  0  0
  -85.2851    8.8697  -50.3518 H   0  0  0  0  0  0  0  0  0  0  0  0
  -84.4980    7.6310  -49.3217 H   0  0  0  0  0  0  0  0  0  0  0  0
  -87.3482    8.0517  -47.5552 H   0  0  0  0  0  0  0  0  0  0  0  0
  -82.9811   14.2953  -49.0110 H   0  0  0  0  0  0  0  0  0  0  0  0
  -78.7100   14.4604  -48.6482 H   0  0  0  0  0  0  0  0  0  0  0  0
  -82.2437   11.1497  -49.8608 H   0  0  0  0  0  0  0  0  0  0  0  0
  -83.7371   10.3679  -50.3187 H   0  0  0  0  0  0  0  0  0  0  0  0
  -81.9292    8.8850  -50.2359 H   0  0  0  0  0  0  0  0  0  0  0  0
  -81.5656    9.2720  -48.6757 H   0  0  0  0  0  0  0  0  0  0  0  0
  -82.9361    8.4600  -49.0123 H   0  0  0  0  0  0  0  0  0  0  0  0
  1  2  2  0
  1  8  1  0
  1 12  1  0
  2  3  1  0
  2 22  1  0
  3  4  1  0
  3  5  2  0
  4 13  3  0
  5 14  1  0
  5 19  1  0
  6 15  2  0
  6 16  1  0
  6 23  1  0
  7 16  2  0
  7 17  1  0
  7 24  1  0
  8 10  1  0
  8 19  2  0
  9 10  1  0
  9 25  1  0
  9 26  1  0
  9 27  1  0
 10 11  1  0
 11 12  2  0
 11 28  1  0
 14 15  1  0
 14 17  2  0
 15 29  1  0
 16 30  1  0
 17 18  1  0
 19 20  1  0
 20 21  1  0
 20 31  1  0
 20 32  1  0
 21 33  1  0
 21 34  1  0
 21 35  1  0
M  CHG  1  21   1
M  END
$$$$
