EL2_ref
     RDKit          3D

 58 62  0  0  1  0  0  0  0  0999 V2000
   30.4860   38.2870   35.8000 C   0  0  0  0  0  0  0  0  0  0  0  0
   29.4150   38.6400   34.8750 N   0  0  0  0  0  0  0  0  0  0  0  0
   28.2950   39.2400   35.2920 C   0  0  0  0  0  0  0  0  0  0  0  0
   28.1430   39.5920   36.4630 O   0  0  0  0  0  0  0  0  0  0  0  0
   27.2830   39.6070   34.2460 C   0  0  0  0  0  0  0  0  0  0  0  0
   27.5250   39.5000   32.8720 C   0  0  0  0  0  0  0  0  0  0  0  0
   26.5850   39.9120   31.9410 C   0  0  0  0  0  0  0  0  0  0  0  0
   25.3900   40.4400   32.4120 C   0  0  0  0  0  0  0  0  0  0  0  0
   24.2230   40.9110   31.7730 N   0  0  0  0  0  0  0  0  0  0  0  0
   24.0700   41.0760   30.3260 C   0  0  2  0  0  0  0  0  0  0  0  0
   24.1140   39.7710   29.5400 C   0  0  0  0  0  0  0  0  0  0  0  0
   23.9970   40.0610   28.0520 C   0  0  0  0  0  0  0  0  0  0  0  0
   25.1600   40.9230   27.5750 C   0  0  0  0  0  0  0  0  0  0  0  0
   25.1840   42.2490   28.3080 C   0  0  1  0  0  0  0  0  0  0  0  0
   25.1730   42.0250   29.8210 C   0  0  0  0  0  0  0  0  0  0  0  0
   26.3690   43.0440   27.9670 N   0  0  0  0  0  0  0  0  0  0  0  0
   26.2940   44.3220   27.5640 C   0  0  0  0  0  0  0  0  0  0  0  0
   25.2360   44.9320   27.4390 O   0  0  0  0  0  0  0  0  0  0  0  0
   27.5940   45.0110   27.3730 C   0  0  0  0  0  0  0  0  0  0  0  0
   28.9120   44.6300   27.5430 C   0  0  0  0  0  0  0  0  0  0  0  0
   29.8410   45.6820   27.3040 C   0  0  0  0  0  0  0  0  0  0  0  0
   29.2150   46.8380   26.9850 C   0  0  0  0  0  0  0  0  0  0  0  0
   30.0300   48.4970   26.6100 Br  0  0  0  0  0  0  0  0  0  0  0  0
   27.4960   46.6910   26.9500 S   0  0  0  0  0  0  0  0  0  0  0  0
   23.3650   41.3130   32.7710 C   0  0  0  0  0  0  0  0  0  0  0  0
   23.8580   41.1140   33.9800 N   0  0  0  0  0  0  0  0  0  0  0  0
   25.1250   40.5610   33.7710 C   0  0  0  0  0  0  0  0  0  0  0  0
   26.0810   40.1520   34.7000 C   0  0  0  0  0  0  0  0  0  0  0  0
   22.0420   41.9350   32.5660 C   0  0  0  0  0  0  0  0  0  0  0  0
   21.0800   41.2840   31.8060 C   0  0  0  0  0  0  0  0  0  0  0  0
   19.8600   41.9050   31.6130 C   0  0  0  0  0  0  0  0  0  0  0  0
   19.6270   43.1410   32.1710 C   0  0  0  0  0  0  0  0  0  0  0  0
   20.6360   43.7220   32.9110 C   0  0  0  0  0  0  0  0  0  0  0  0
   21.8410   43.1480   33.1130 N   0  0  0  0  0  0  0  0  0  0  0  0
   31.4474   38.3632   35.3000 H   0  0  0  0  0  0  0  0  0  0  0  0
   30.5309   38.9248   36.6842 H   0  0  0  0  0  0  0  0  0  0  0  0
   30.3709   37.2543   36.1232 H   0  0  0  0  0  0  0  0  0  0  0  0
   29.5044   38.3120   33.9224 H   0  0  0  0  0  0  0  0  0  0  0  0
   28.4571   39.0956   32.5042 H   0  0  0  0  0  0  0  0  0  0  0  0
   26.7988   39.7963   30.8899 H   0  0  0  0  0  0  0  0  0  0  0  0
   23.1009   41.5540   30.1938 H   0  0  0  0  0  0  0  0  0  0  0  0
   23.2347   39.1816   29.8052 H   0  0  0  0  0  0  0  0  0  0  0  0
   24.9748   39.1482   29.7799 H   0  0  0  0  0  0  0  0  0  0  0  0
   23.0512   40.5628   27.8394 H   0  0  0  0  0  0  0  0  0  0  0  0
   23.9749   39.1356   27.4796 H   0  0  0  0  0  0  0  0  0  0  0  0
   25.0713   41.0934   26.5008 H   0  0  0  0  0  0  0  0  0  0  0  0
   26.0945   40.3809   27.7300 H   0  0  0  0  0  0  0  0  0  0  0  0
   24.2519   42.7554   28.0420 H   0  0  0  0  0  0  0  0  0  0  0  0
   26.1586   41.7025   30.1456 H   0  0  0  0  0  0  0  0  0  0  0  0
   25.0238   42.9981   30.2884 H   0  0  0  0  0  0  0  0  0  0  0  0
   27.2708   42.6017   28.0958 H   0  0  0  0  0  0  0  0  0  0  0  0
   29.2092   43.6320   27.8035 H   0  0  0  0  0  0  0  0  0  0  0  0
   30.9066   45.5517   27.3512 H   0  0  0  0  0  0  0  0  0  0  0  0
   25.8656   40.2567   35.7542 H   0  0  0  0  0  0  0  0  0  0  0  0
   21.2728   40.3109   31.3803 H   0  0  0  0  0  0  0  0  0  0  0  0
   19.0933   41.4249   31.0231 H   0  0  0  0  0  0  0  0  0  0  0  0
   18.6881   43.6509   32.0175 H   0  0  0  0  0  0  0  0  0  0  0  0
   20.4983   44.6906   33.3357 H   0  0  0  0  0  0  0  0  0  0  0  0
  1  2  1  0
  1 35  1  0
  1 36  1  0
  1 37  1  0
  2  3  1  0
  2 38  1  0
  3  4  2  0
  3  5  1  0
  5  6  2  0
  5 28  1  0
  6  7  1  0
  6 39  1  0
  7  8  2  0
  7 40  1  0
  8  9  1  0
  8 27  1  0
  9 10  1  0
  9 25  1  0
 10 11  1  0
 10 15  1  0
 10 41  1  1
 11 12  1  0
 11 42  1  0
 11 43  1  0
 12 13  1  0
 12 44  1  0
 12 45  1  0
 13 14  1  0
 13 46  1  0
 13 47  1  0
 14 15  1  0
 14 16  1  0
 14 48  1  6
 15 49  1  0
 15 50  1  0
 16 17  1  0
 16 51  1  0
 17 18  2  0
 17 19  1  0
 19 20  2  0
 19 24  1  0
 20 21  1  0
 20 52  1  0
 21 22  2  0
 21 53  1  0
 22 23  1  0
 22 24  1  0
 25 26  2  0
 25 29  1  0
 26 27  1  0
 27 28  2  0
 28 54  1  0
 29 30  2  0
 29 34  1  0
 30 31  1  0
 30 55  1  0
 31 32  2  0
 31 56  1  0
 32 33  1  0
 32 57  1  0
 33 34  2  0
 33 58  1  0
M  END
$$$$
