SJJ_ref
     RDKit          3D

 38 40  0  0  1  0  0  0  0  0999 V2000
  103.9850   61.1980   44.3150 C   0  0  0  0  0  0  0  0  0  0  0  0
  106.1690   61.0580   45.2270 C   0  0  0  0  0  0  0  0  0  0  0  0
  104.3130   62.3730   43.6620 C   0  0  0  0  0  0  0  0  0  0  0  0
  106.5120   62.2390   44.5950 C   0  0  0  0  0  0  0  0  0  0  0  0
  110.3860   56.5630   47.5090 C   0  0  0  0  0  0  0  0  0  0  0  0
  108.6420   55.6990   48.8750 C   0  0  0  0  0  0  0  0  0  0  0  0
  111.1620   56.6610   48.6500 C   0  0  0  0  0  0  0  0  0  0  0  0
  109.5000   55.8360   49.9500 C   0  0  0  0  0  0  0  0  0  0  0  0
  103.0720   57.9060   46.5570 C   0  0  0  0  0  0  0  0  0  0  0  0
  104.8980   60.5240   45.0980 C   0  0  0  0  0  0  0  0  0  0  0  0
  109.1020   56.0720   47.6300 C   0  0  0  0  0  0  0  0  0  0  0  0
  105.5780   62.8950   43.8110 C   0  0  0  0  0  0  0  0  0  0  0  0
  104.5210   59.2670   45.7330 C   0  0  0  0  0  0  0  0  0  0  0  0
  105.1500   58.1770   46.3050 C   0  0  0  0  0  0  0  0  0  0  0  0
  106.5770   57.7600   46.3450 C   0  0  0  0  0  0  0  0  0  0  0  0
  107.2180   64.4340   43.2450 C   0  0  0  0  0  0  0  0  0  0  0  0
  108.2460   55.9350   46.4190 C   0  0  0  0  0  0  0  0  0  0  0  0
  110.7510   56.3100   49.8760 N   0  0  0  0  0  0  0  0  0  0  0  0
  104.2130   57.3210   46.8250 N   0  0  0  0  0  0  0  0  0  0  0  0
  106.8860   56.4600   46.6700 N   0  0  0  0  0  0  0  0  0  0  0  0
  107.4440   58.5650   46.0290 O   0  0  0  0  0  0  0  0  0  0  0  0
  103.1820   59.0850   45.8900 O   0  0  0  0  0  0  0  0  0  0  0  0
  105.8320   64.0940   43.1520 O   0  0  0  0  0  0  0  0  0  0  0  0
  102.9895   60.8042   44.1751 H   0  0  0  0  0  0  0  0  0  0  0  0
  106.9005   60.6823   45.9120 H   0  0  0  0  0  0  0  0  0  0  0  0
  103.5811   62.8807   43.0520 H   0  0  0  0  0  0  0  0  0  0  0  0
  107.5157   62.5881   44.7759 H   0  0  0  0  0  0  0  0  0  0  0  0
  110.7853   56.8642   46.5513 H   0  0  0  0  0  0  0  0  0  0  0  0
  107.6476   55.3038   49.0175 H   0  0  0  0  0  0  0  0  0  0  0  0
  112.1691   57.0454   48.5858 H   0  0  0  0  0  0  0  0  0  0  0  0
  109.1754   55.5682   50.9422 H   0  0  0  0  0  0  0  0  0  0  0  0
  102.1777   57.8521   47.1137 H   0  0  0  0  0  0  0  0  0  0  0  0
  107.3772   65.3385   42.6577 H   0  0  0  0  0  0  0  0  0  0  0  0
  107.5215   64.6868   44.2613 H   0  0  0  0  0  0  0  0  0  0  0  0
  107.8794   63.6771   42.8171 H   0  0  0  0  0  0  0  0  0  0  0  0
  108.1587   54.8734   46.1833 H   0  0  0  0  0  0  0  0  0  0  0  0
  108.7110   56.4094   45.5514 H   0  0  0  0  0  0  0  0  0  0  0  0
  106.2063   55.8399   47.0914 H   0  0  0  0  0  0  0  0  0  0  0  0
  1  3  2  0
  1 10  1  0
  1 24  1  0
  2  4  1  0
  2 10  2  0
  2 25  1  0
  3 12  1  0
  3 26  1  0
  4 12  2  0
  4 27  1  0
  5  7  2  0
  5 11  1  0
  5 28  1  0
  6  8  1  0
  6 11  2  0
  6 29  1  0
  7 18  1  0
  7 30  1  0
  8 18  2  0
  8 31  1  0
  9 19  2  0
  9 22  1  0
  9 32  1  0
 10 13  1  0
 11 17  1  0
 12 23  1  0
 13 14  2  0
 13 22  1  0
 14 15  1  0
 14 19  1  0
 15 20  1  0
 15 21  2  0
 16 23  1  0
 16 33  1  0
 16 34  1  0
 16 35  1  0
 17 20  1  0
 17 36  1  0
 17 37  1  0
 20 38  1  0
M  END
$$$$
