I50_ref
     RDKit          3D

 52 53  0  0  1  0  0  0  0  0999 V2000
   11.2820  -11.8930   24.1440 C   0  0  0  0  0  0  0  0  0  0  0  0
   12.8320  -10.8210   22.8090 O   0  0  0  0  0  0  0  0  0  0  0  0
   13.5960  -11.6280   20.7120 C   0  0  0  0  0  0  0  0  0  0  0  0
   15.9110  -12.6250   20.6430 C   0  0  0  0  0  0  0  0  0  0  0  0
   17.4290  -12.4680   20.7380 C   0  0  0  0  0  0  0  0  0  0  0  0
   18.0500  -13.6860   21.4320 C   0  0  0  0  0  0  0  0  0  0  0  0
   17.3890  -14.3750   22.4770 C   0  0  0  0  0  0  0  0  0  0  0  0
   18.0100  -15.4820   23.0830 C   0  0  0  0  0  0  0  0  0  0  0  0
   19.2980  -15.9110   22.6540 C   0  0  0  0  0  0  0  0  0  0  0  0
   19.9610  -15.2270   21.6180 C   0  0  0  0  0  0  0  0  0  0  0  0
   17.9920  -17.4000   24.6850 C   0  0  0  0  0  0  0  0  0  0  0  0
   18.5950  -17.1030   26.0710 C   0  0  0  0  0  0  0  0  0  0  0  0
   22.2290  -15.9830   25.3400 C   0  0  0  0  0  0  0  0  0  0  0  0
   19.7770  -14.8320   26.1720 C   0  0  0  0  0  0  0  0  0  0  0  0
   11.0940  -10.7580   24.6540 N   0  0  0  0  0  0  0  0  0  0  0  0
   10.3040  -12.9490   24.3330 N   0  0  0  0  0  0  0  0  0  0  0  0
   12.3530  -12.0830   23.1850 N   0  0  0  0  0  0  0  0  0  0  0  0
   12.9150  -10.4740   21.4530 C   0  0  0  0  0  0  0  0  0  0  0  0
   15.0380  -11.4860   20.8980 N   0  0  0  0  0  0  0  0  0  0  0  0
   15.4670  -13.6050   20.1460 O   0  0  0  0  0  0  0  0  0  0  0  0
   19.3340  -14.1170   21.0090 C   0  0  0  0  0  0  0  0  0  0  0  0
   20.1610  -13.2430   19.6960 Cl  0  0  0  0  0  0  0  0  0  0  0  0
   16.1630  -13.9770   22.9160 F   0  0  0  0  0  0  0  0  0  0  0  0
   17.3490  -16.1960   24.1720 N   0  0  0  0  0  0  0  0  0  0  0  0
   19.8580  -16.2290   25.9150 C   0  0  0  0  0  0  0  0  0  0  0  0
   21.0880  -16.7970   25.4930 C   0  0  0  0  0  0  0  0  0  0  0  0
   22.1470  -14.5890   25.5970 C   0  0  0  0  0  0  0  0  0  0  0  0
   20.9160  -14.0200   26.0160 C   0  0  0  0  0  0  0  0  0  0  0  0
   17.6690  -16.4360   26.8250 F   0  0  0  0  0  0  0  0  0  0  0  0
   18.8830  -18.3030   26.6480 F   0  0  0  0  0  0  0  0  0  0  0  0
   13.3972  -11.4943   19.6481 H   0  0  0  0  0  0  0  0  0  0  0  0
   13.2300  -12.6338   20.9168 H   0  0  0  0  0  0  0  0  0  0  0  0
   17.6910  -11.5645   21.2885 H   0  0  0  0  0  0  0  0  0  0  0  0
   17.7681  -12.3396   19.7121 H   0  0  0  0  0  0  0  0  0  0  0  0
   19.8478  -16.7292   23.0814 H   0  0  0  0  0  0  0  0  0  0  0  0
   20.9309  -15.5525   21.2858 H   0  0  0  0  0  0  0  0  0  0  0  0
   17.1751  -18.1076   24.8297 H   0  0  0  0  0  0  0  0  0  0  0  0
   18.6588  -17.9430   24.0212 H   0  0  0  0  0  0  0  0  0  0  0  0
   23.1661  -16.4174   25.0243 H   0  0  0  0  0  0  0  0  0  0  0  0
   18.8472  -14.3807   26.4635 H   0  0  0  0  0  0  0  0  0  0  0  0
   11.8399  -10.0742   24.6739 H   0  0  0  0  0  0  0  0  0  0  0  0
   10.1821  -10.5316   25.0327 H   0  0  0  0  0  0  0  0  0  0  0  0
   10.4806  -13.8825   23.9824 H   0  0  0  0  0  0  0  0  0  0  0  0
    9.4675  -12.7669   24.8835 H   0  0  0  0  0  0  0  0  0  0  0  0
   12.9444  -12.9058   23.1355 H   0  0  0  0  0  0  0  0  0  0  0  0
   13.4611   -9.5412   21.3335 H   0  0  0  0  0  0  0  0  0  0  0  0
   11.9040  -10.3097   21.0793 H   0  0  0  0  0  0  0  0  0  0  0  0
   15.4096  -10.5988   21.2118 H   0  0  0  0  0  0  0  0  0  0  0  0
   16.5105  -15.8305   24.6069 H   0  0  0  0  0  0  0  0  0  0  0  0
   21.1582  -17.8557   25.2899 H   0  0  0  0  0  0  0  0  0  0  0  0
   23.0228  -13.9682   25.4794 H   0  0  0  0  0  0  0  0  0  0  0  0
   20.8508  -12.9586   26.2093 H   0  0  0  0  0  0  0  0  0  0  0  0
  1 15  2  0
  1 16  1  0
  1 17  1  0
  2 17  1  0
  2 18  1  0
  3 18  1  0
  3 19  1  0
  3 31  1  0
  3 32  1  0
  4  5  1  0
  4 19  1  0
  4 20  2  0
  5  6  1  0
  5 33  1  0
  5 34  1  0
  6  7  2  0
  6 21  1  0
  7  8  1  0
  7 23  1  0
  8  9  2  0
  8 24  1  0
  9 10  1  0
  9 35  1  0
 10 21  2  0
 10 36  1  0
 11 12  1  0
 11 24  1  0
 11 37  1  0
 11 38  1  0
 12 25  1  0
 12 29  1  0
 12 30  1  0
 13 26  2  0
 13 27  1  0
 13 39  1  0
 14 25  2  0
 14 28  1  0
 14 40  1  0
 15 41  1  0
 15 42  1  0
 16 43  1  0
 16 44  1  0
 17 45  1  0
 18 46  1  0
 18 47  1  0
 19 48  1  0
 21 22  1  0
 24 49  1  0
 25 26  1  0
 26 50  1  0
 27 28  2  0
 27 51  1  0
 28 52  1  0
M  CHG  1  15   1
M  END
$$$$
