D3S_ref
     RDKit          3D

 45 48  0  0  1  0  0  0  0  0999 V2000
   -9.1760  -18.1610   17.7010 C   0  0  0  0  0  0  0  0  0  0  0  0
  -12.4210  -12.0670   22.2590 C   0  0  0  0  0  0  0  0  0  0  0  0
  -10.0710  -17.1870   18.1510 C   0  0  0  0  0  0  0  0  0  0  0  0
   -9.6310  -15.9250   18.5520 C   0  0  0  0  0  0  0  0  0  0  0  0
   -8.2600  -15.5960   18.5250 C   0  0  0  0  0  0  0  0  0  0  0  0
   -9.0400  -13.2700   19.9730 C   0  0  0  0  0  0  0  0  0  0  0  0
   -9.9590  -12.4740   19.3620 C   0  0  0  0  0  0  0  0  0  0  0  0
  -11.1060  -11.8400   20.0960 C   0  0  0  0  0  0  0  0  0  0  0  0
  -11.5020  -12.7760   21.2610 C   0  0  2  0  0  0  0  0  0  0  0  0
   -7.8190  -17.8580   17.6580 C   0  0  0  0  0  0  0  0  0  0  0  0
   -5.6610  -16.2700   17.9760 Cl  0  0  0  0  0  0  0  0  0  0  0  0
   -7.3650  -16.5940   18.0670 C   0  0  0  0  0  0  0  0  0  0  0  0
   -7.6980  -13.9790   19.0780 S   0  0  0  0  0  0  0  0  0  0  0  0
   -9.8600  -12.2120   18.0540 O   0  0  0  0  0  0  0  0  0  0  0  0
  -13.7490  -12.4830   22.4760 C   0  0  0  0  0  0  0  0  0  0  0  0
  -14.5570  -11.8200   23.4090 C   0  0  0  0  0  0  0  0  0  0  0  0
  -14.0340  -10.7490   24.1550 C   0  0  0  0  0  0  0  0  0  0  0  0
  -12.7090  -10.3180   23.9600 C   0  0  0  0  0  0  0  0  0  0  0  0
  -11.8950  -10.9820   23.0170 C   0  0  0  0  0  0  0  0  0  0  0  0
  -10.6000  -10.5560   22.8270 O   0  0  0  0  0  0  0  0  0  0  0  0
  -12.0960  -14.0650   20.6700 C   0  0  0  0  0  0  0  0  0  0  0  0
  -12.9330  -14.0390   19.5380 C   0  0  0  0  0  0  0  0  0  0  0  0
  -13.4630  -15.2100   18.9850 C   0  0  0  0  0  0  0  0  0  0  0  0
  -13.1620  -16.4470   19.5580 C   0  0  0  0  0  0  0  0  0  0  0  0
  -12.3220  -16.4940   20.6810 C   0  0  0  0  0  0  0  0  0  0  0  0
  -11.7950  -15.3160   21.2370 C   0  0  0  0  0  0  0  0  0  0  0  0
  -10.2630  -12.9930   22.0230 O   0  0  0  0  0  0  0  0  0  0  0  0
   -9.1790  -13.5420   21.4040 C   0  0  0  0  0  0  0  0  0  0  0  0
   -8.3900  -14.2310   22.0200 O   0  0  0  0  0  0  0  0  0  0  0  0
   -9.5388  -19.1226   17.3734 H   0  0  0  0  0  0  0  0  0  0  0  0
  -11.1242  -17.4193   18.1591 H   0  0  0  0  0  0  0  0  0  0  0  0
  -10.3670  -15.2046   18.8621 H   0  0  0  0  0  0  0  0  0  0  0  0
  -11.9544  -11.5855   19.4642 H   0  0  0  0  0  0  0  0  0  0  0  0
  -10.7497  -10.8736   20.4428 H   0  0  0  0  0  0  0  0  0  0  0  0
   -7.1167  -18.6067   17.3301 H   0  0  0  0  0  0  0  0  0  0  0  0
  -14.1803  -13.3107   21.9339 H   0  0  0  0  0  0  0  0  0  0  0  0
  -15.5752  -12.1431   23.5699 H   0  0  0  0  0  0  0  0  0  0  0  0
  -14.6522  -10.2667   24.8947 H   0  0  0  0  0  0  0  0  0  0  0  0
  -12.3298   -9.4994   24.5496 H   0  0  0  0  0  0  0  0  0  0  0  0
  -10.1011  -11.1916   22.3071 H   0  0  0  0  0  0  0  0  0  0  0  0
  -13.2091  -13.1211   19.0577 H   0  0  0  0  0  0  0  0  0  0  0  0
  -14.0951  -15.1591   18.1107 H   0  0  0  0  0  0  0  0  0  0  0  0
  -13.5243  -17.3345   19.0842 H   0  0  0  0  0  0  0  0  0  0  0  0
  -12.0681  -17.4475   21.1192 H   0  0  0  0  0  0  0  0  0  0  0  0
  -11.1669  -15.3951   22.1119 H   0  0  0  0  0  0  0  0  0  0  0  0
  1  3  2  0
  1 10  1  0
  1 30  1  0
  9  2  1  1
  2 15  2  0
  2 19  1  0
  3  4  1  0
  3 31  1  0
  4  5  2  0
  4 32  1  0
  5 12  1  0
  5 13  1  0
  6  7  2  0
  6 13  1  0
  6 28  1  0
  7  8  1  0
  7 14  1  0
  8  9  1  0
  8 33  1  0
  8 34  1  0
  9 21  1  0
  9 27  1  0
 10 12  2  0
 10 35  1  0
 11 12  1  0
 15 16  1  0
 15 36  1  0
 16 17  2  0
 16 37  1  0
 17 18  1  0
 17 38  1  0
 18 19  2  0
 18 39  1  0
 19 20  1  0
 20 40  1  0
 21 22  2  0
 21 26  1  0
 22 23  1  0
 22 41  1  0
 23 24  2  0
 23 42  1  0
 24 25  1  0
 24 43  1  0
 25 26  2  0
 25 44  1  0
 26 45  1  0
 27 28  1  0
 28 29  2  0
M  CHG  1  14  -1
M  END
$$$$
