ML9_ref
     RDKit          3D

 58 61  0  0  1  0  0  0  0  0999 V2000
  -16.2770    6.7940   26.9430 C   0  0  0  0  0  0  0  0  0  0  0  0
  -15.8980    5.6440   26.2850 C   0  0  0  0  0  0  0  0  0  0  0  0
  -14.8680    8.0310   25.4880 C   0  0  0  0  0  0  0  0  0  0  0  0
  -15.7640    8.0270   26.5540 C   0  0  0  0  0  0  0  0  0  0  0  0
  -15.5460   11.4460   28.1800 C   0  0  0  0  0  0  0  0  0  0  0  0
  -14.6170   12.4730   28.4330 C   0  0  0  0  0  0  0  0  0  0  0  0
  -16.8820   11.6490   28.6500 C   0  0  0  0  0  0  0  0  0  0  0  0
  -14.9940    5.7720   25.2350 C   0  0  0  0  0  0  0  0  0  0  0  0
  -16.2930   13.6830   29.4990 C   0  0  0  0  0  0  0  0  0  0  0  0
  -15.2730   10.2240   27.5000 C   0  0  0  0  0  0  0  0  0  0  0  0
  -16.1780    9.2630   27.2740 C   0  0  0  0  0  0  0  0  0  0  0  0
  -17.5640    9.4360   27.7420 C   0  0  0  0  0  0  0  0  0  0  0  0
  -20.2250   11.3090   27.8610 C   0  0  0  0  0  0  0  0  0  0  0  0
  -19.7200    9.9690   29.9710 C   0  0  0  0  0  0  0  0  0  0  0  0
  -21.5730   11.7180   28.4750 C   0  0  0  0  0  0  0  0  0  0  0  0
  -21.0600   10.4170   30.5610 C   0  0  0  0  0  0  0  0  0  0  0  0
  -19.2040   10.9950   28.9580 C   0  0  1  0  0  0  0  0  0  0  0  0
  -22.0770   10.6890   29.4710 C   0  0  1  0  0  0  0  0  0  0  0  0
  -13.1800   12.4220   28.0090 C   0  0  0  0  0  0  0  0  0  0  0  0
  -13.7380    4.6690   23.5470 C   0  0  0  0  0  0  0  0  0  0  0  0
  -25.0370    9.6250   29.0890 C   0  0  0  0  0  0  0  0  0  0  0  0
  -24.2870   10.0920   30.3110 C   0  0  0  0  0  0  0  0  0  0  0  0
  -14.4790    6.9250   24.8280 N   0  0  0  0  0  0  0  0  0  0  0  0
  -15.0090   13.5760   29.0900 N   0  0  0  0  0  0  0  0  0  0  0  0
  -17.2600   12.7570   29.3050 N   0  0  0  0  0  0  0  0  0  0  0  0
  -17.8470   10.6720   28.4320 N   0  0  0  0  0  0  0  0  0  0  0  0
  -16.6370   14.8000   30.1510 N   0  0  0  0  0  0  0  0  0  0  0  0
  -18.4420    8.5960   27.5670 O   0  0  0  0  0  0  0  0  0  0  0  0
  -25.4990   10.7130   28.2960 O   0  0  0  0  0  0  0  0  0  0  0  0
  -14.6590    4.6150   24.6310 O   0  0  0  0  0  0  0  0  0  0  0  0
  -23.3190   11.1150   30.0480 O   0  0  0  0  0  0  0  0  0  0  0  0
  -16.9496    6.6956   27.7813 H   0  0  0  0  0  0  0  0  0  0  0  0
  -16.2864    4.6824   26.5830 H   0  0  0  0  0  0  0  0  0  0  0  0
  -14.4435    8.9564   25.1298 H   0  0  0  0  0  0  0  0  0  0  0  0
  -14.2682   10.0615   27.1422 H   0  0  0  0  0  0  0  0  0  0  0  0
  -19.8599   12.1361   27.2494 H   0  0  0  0  0  0  0  0  0  0  0  0
  -20.3479   10.4618   27.1848 H   0  0  0  0  0  0  0  0  0  0  0  0
  -19.8382    8.9903   29.5120 H   0  0  0  0  0  0  0  0  0  0  0  0
  -19.0039    9.8398   30.7781 H   0  0  0  0  0  0  0  0  0  0  0  0
  -22.2989   11.8504   27.6716 H   0  0  0  0  0  0  0  0  0  0  0  0
  -21.4392   12.6799   28.9737 H   0  0  0  0  0  0  0  0  0  0  0  0
  -20.8986   11.3087   31.1693 H   0  0  0  0  0  0  0  0  0  0  0  0
  -21.4084    9.6050   31.1925 H   0  0  0  0  0  0  0  0  0  0  0  0
  -19.2170   11.8885   29.5716 H   0  0  0  0  0  0  0  0  0  0  0  0
  -22.2364    9.7636   28.9122 H   0  0  0  0  0  0  0  0  0  0  0  0
  -12.5666   12.9707   28.7100 H   0  0  0  0  0  0  0  0  0  0  0  0
  -12.7952   11.4061   27.9507 H   0  0  0  0  0  0  0  0  0  0  0  0
  -13.0655   12.8828   27.0282 H   0  0  0  0  0  0  0  0  0  0  0  0
  -13.6901    3.6943   23.0619 H   0  0  0  0  0  0  0  0  0  0  0  0
  -14.0008    5.3977   22.7866 H   0  0  0  0  0  0  0  0  0  0  0  0
  -12.7355    4.9023   23.9095 H   0  0  0  0  0  0  0  0  0  0  0  0
  -25.9100    9.0442   29.3888 H   0  0  0  0  0  0  0  0  0  0  0  0
  -24.4116    8.9924   28.4587 H   0  0  0  0  0  0  0  0  0  0  0  0
  -23.8335    9.2467   30.8304 H   0  0  0  0  0  0  0  0  0  0  0  0
  -25.0047   10.5162   31.0142 H   0  0  0  0  0  0  0  0  0  0  0  0
  -17.5806   14.8891   30.4960 H   0  0  0  0  0  0  0  0  0  0  0  0
  -15.9246   15.4749   30.4001 H   0  0  0  0  0  0  0  0  0  0  0  0
  -26.2075   10.3963   27.7263 H   0  0  0  0  0  0  0  0  0  0  0  0
  1  2  2  0
  1  4  1  0
  1 32  1  0
  2  8  1  0
  2 33  1  0
  3  4  2  0
  3 23  1  0
  3 34  1  0
  4 11  1  0
  5  6  2  0
  5  7  1  0
  5 10  1  0
  6 19  1  0
  6 24  1  0
  7 25  2  0
  7 26  1  0
  8 23  2  0
  8 30  1  0
  9 24  2  0
  9 25  1  0
  9 27  1  0
 10 11  2  0
 10 35  1  0
 11 12  1  0
 12 26  1  0
 12 28  2  0
 13 15  1  0
 13 17  1  0
 13 36  1  0
 13 37  1  0
 14 16  1  0
 14 17  1  0
 14 38  1  0
 14 39  1  0
 15 18  1  0
 15 40  1  0
 15 41  1  0
 16 18  1  0
 16 42  1  0
 16 43  1  0
 17 26  1  0
 17 44  1  1
 18 31  1  0
 18 45  1  6
 19 46  1  0
 19 47  1  0
 19 48  1  0
 20 30  1  0
 20 49  1  0
 20 50  1  0
 20 51  1  0
 21 22  1  0
 21 29  1  0
 21 52  1  0
 21 53  1  0
 22 31  1  0
 22 54  1  0
 22 55  1  0
 27 56  1  0
 27 57  1  0
 29 58  1  0
M  END
$$$$
