34O_ref
     RDKit          3D

 38 41  0  0  1  0  0  0  0  0999 V2000
  -30.5250    7.5860   38.6890 C   0  0  0  0  0  0  0  0  0  0  0  0
  -25.4170   10.1970   40.2380 C   0  0  0  0  0  0  0  0  0  0  0  0
  -29.4720    8.9730   40.1520 C   0  0  0  0  0  0  0  0  0  0  0  0
  -28.5220    8.5280   39.1490 C   0  0  0  0  0  0  0  0  0  0  0  0
  -27.2050    8.9230   39.1800 C   0  0  0  0  0  0  0  0  0  0  0  0
  -29.0960    9.8050   41.1930 C   0  0  0  0  0  0  0  0  0  0  0  0
  -27.7540   10.2030   41.2060 C   0  0  0  0  0  0  0  0  0  0  0  0
  -26.8400    9.7650   40.2290 C   0  0  0  0  0  0  0  0  0  0  0  0
  -25.7710    6.7970   36.0090 F   0  0  0  0  0  0  0  0  0  0  0  0
  -25.2290    8.0350   36.0610 C   0  0  0  0  0  0  0  0  0  0  0  0
  -25.9510    9.2610   35.5690 C   0  0  0  0  0  0  0  0  0  0  0  0
  -27.2090    9.2230   34.9950 O   0  0  0  0  0  0  0  0  0  0  0  0
  -28.3360    8.5170   35.5230 C   0  0  0  0  0  0  0  0  0  0  0  0
  -25.3030   10.5000   35.6620 C   0  0  0  0  0  0  0  0  0  0  0  0
  -24.0200   10.5930   36.2130 C   0  0  0  0  0  0  0  0  0  0  0  0
  -23.9510    8.1930   36.6070 C   0  0  0  0  0  0  0  0  0  0  0  0
  -23.3490    9.4590   36.6960 C   0  0  0  0  0  0  0  0  0  0  0  0
  -21.9510    9.5770   37.2940 C   0  0  0  0  0  0  0  0  0  0  0  0
  -21.8300   10.2070   38.9540 S   0  0  0  0  0  0  0  0  0  0  0  0
  -23.3020   10.3940   39.6900 C   0  0  0  0  0  0  0  0  0  0  0  0
  -23.5410   11.2010   40.6270 N   0  0  0  0  0  0  0  0  0  0  0  0
  -24.9060   11.0790   40.9710 N   0  0  0  0  0  0  0  0  0  0  0  0
  -24.4660    9.6300   39.3200 O   0  0  0  0  0  0  0  0  0  0  0  0
  -30.6710    8.4200   39.8510 O   0  0  0  0  0  0  0  0  0  0  0  0
  -29.1570    7.7190   38.2720 O   0  0  0  0  0  0  0  0  0  0  0  0
  -31.0553    7.8757   37.7970 H   0  0  0  0  0  0  0  0  0  0  0  0
  -30.6966    6.5455   38.9523 H   0  0  0  0  0  0  0  0  0  0  0  0
  -26.5046    8.5892   38.4306 H   0  0  0  0  0  0  0  0  0  0  0  0
  -29.7852   10.1691   41.9216 H   0  0  0  0  0  0  0  0  0  0  0  0
  -27.3678   10.8355   41.9841 H   0  0  0  0  0  0  0  0  0  0  0  0
  -29.0782    8.3812   34.7366 H   0  0  0  0  0  0  0  0  0  0  0  0
  -28.0791    7.5337   35.9132 H   0  0  0  0  0  0  0  0  0  0  0  0
  -28.7997    9.1092   36.3080 H   0  0  0  0  0  0  0  0  0  0  0  0
  -25.7951   11.3935   35.3060 H   0  0  0  0  0  0  0  0  0  0  0  0
  -23.5455   11.5616   36.2622 H   0  0  0  0  0  0  0  0  0  0  0  0
  -23.4213    7.3144   36.9371 H   0  0  0  0  0  0  0  0  0  0  0  0
  -21.3510   10.2225   36.6510 H   0  0  0  0  0  0  0  0  0  0  0  0
  -21.4621    8.6035   37.2783 H   0  0  0  0  0  0  0  0  0  0  0  0
  1 24  1  0
  1 25  1  0
  1 26  1  0
  1 27  1  0
  2  8  1  0
  2 22  2  0
  2 23  1  0
  3  4  2  0
  3  6  1  0
  3 24  1  0
  4  5  1  0
  4 25  1  0
  5  8  2  0
  5 28  1  0
  6  7  2  0
  6 29  1  0
  7  8  1  0
  7 30  1  0
  9 10  1  0
 10 11  2  0
 10 16  1  0
 11 12  1  0
 11 14  1  0
 12 13  1  0
 13 31  1  0
 13 32  1  0
 13 33  1  0
 14 15  2  0
 14 34  1  0
 15 17  1  0
 15 35  1  0
 16 17  2  0
 16 36  1  0
 17 18  1  0
 18 19  1  0
 18 37  1  0
 18 38  1  0
 19 20  1  0
 20 21  2  0
 20 23  1  0
 21 22  1  0
M  END
$$$$
