69F_ref
     RDKit          3D

 49 52  0  0  1  0  0  0  0  0999 V2000
   26.5240   12.3280   14.7010 C   0  0  0  0  0  0  0  0  0  0  0  0
   26.3070   12.4370   13.2270 C   0  0  0  0  0  0  0  0  0  0  0  0
   30.7420   14.8730   13.8000 C   0  0  0  0  0  0  0  0  0  0  0  0
   28.3500   13.7320   13.0030 C   0  0  0  0  0  0  0  0  0  0  0  0
   28.6860   15.0090   12.5750 C   0  0  0  0  0  0  0  0  0  0  0  0
   29.8750   15.5830   12.9920 C   0  0  0  0  0  0  0  0  0  0  0  0
   30.4270   13.5740   14.2240 C   0  0  0  0  0  0  0  0  0  0  0  0
   29.2120   12.9840   13.8240 C   0  0  0  0  0  0  0  0  0  0  0  0
   27.2050    9.9600   14.6170 C   0  0  0  0  0  0  0  0  0  0  0  0
   27.6740   11.3660   14.9910 C   0  0  1  0  0  0  0  0  0  0  0  0
   25.3490   11.9340   12.6600 O   0  0  0  0  0  0  0  0  0  0  0  0
   27.1760   13.1510   12.5120 N   0  0  0  0  0  0  0  0  0  0  0  0
   28.9190   11.6700   14.2350 N   0  0  0  0  0  0  0  0  0  0  0  0
   31.4010   12.8540   15.0830 C   0  0  0  0  0  0  0  0  0  0  0  0
   31.1260   12.4870   16.4000 C   0  0  0  0  0  0  0  0  0  0  0  0
   32.0910   11.8220   17.1400 C   0  0  0  0  0  0  0  0  0  0  0  0
   33.3250   11.5140   16.5930 C   0  0  0  0  0  0  0  0  0  0  0  0
   33.6010   11.8710   15.2800 C   0  0  0  0  0  0  0  0  0  0  0  0
   32.6490   12.5470   14.5300 C   0  0  0  0  0  0  0  0  0  0  0  0
   34.8170   11.5630   14.7520 O   0  0  0  0  0  0  0  0  0  0  0  0
   35.0940   11.8670   13.3790 C   0  0  0  0  0  0  0  0  0  0  0  0
   36.5010   11.4050   13.0960 C   0  0  0  0  0  0  0  0  0  0  0  0
   37.4670   12.3080   12.6800 C   0  0  0  0  0  0  0  0  0  0  0  0
   38.7560   11.8710   12.4310 C   0  0  0  0  0  0  0  0  0  0  0  0
   39.0800   10.5360   12.6050 C   0  0  0  0  0  0  0  0  0  0  0  0
   38.1160    9.6360   13.0210 C   0  0  0  0  0  0  0  0  0  0  0  0
   36.8270   10.0720   13.2720 C   0  0  0  0  0  0  0  0  0  0  0  0
   25.5980   12.0177   15.1806 H   0  0  0  0  0  0  0  0  0  0  0  0
   26.7680   13.3068   15.1180 H   0  0  0  0  0  0  0  0  0  0  0  0
   31.6684   15.3350   14.1102 H   0  0  0  0  0  0  0  0  0  0  0  0
   28.0165   15.5605   11.9320 H   0  0  0  0  0  0  0  0  0  0  0  0
   30.1287   16.5835   12.6734 H   0  0  0  0  0  0  0  0  0  0  0  0
   27.9568    9.2123   14.8576 H   0  0  0  0  0  0  0  0  0  0  0  0
   26.3021    9.6798   15.1611 H   0  0  0  0  0  0  0  0  0  0  0  0
   27.0007    9.8384   13.5525 H   0  0  0  0  0  0  0  0  0  0  0  0
   27.9184   11.3948   16.0536 H   0  0  0  0  0  0  0  0  0  0  0  0
   26.9819   13.2384   11.5229 H   0  0  0  0  0  0  0  0  0  0  0  0
   29.7129   11.2002   14.6474 H   0  0  0  0  0  0  0  0  0  0  0  0
   30.1669   12.7030   16.8449 H   0  0  0  0  0  0  0  0  0  0  0  0
   31.8774   11.5431   18.1610 H   0  0  0  0  0  0  0  0  0  0  0  0
   34.0643   10.9934   17.1839 H   0  0  0  0  0  0  0  0  0  0  0  0
   32.8255   12.8409   13.5074 H   0  0  0  0  0  0  0  0  0  0  0  0
   35.0152   12.9415   13.1998 H   0  0  0  0  0  0  0  0  0  0  0  0
   34.4083   11.3594   12.6987 H   0  0  0  0  0  0  0  0  0  0  0  0
   37.2255   13.3528   12.5480 H   0  0  0  0  0  0  0  0  0  0  0  0
   39.5111   12.5724   12.1075 H   0  0  0  0  0  0  0  0  0  0  0  0
   40.0885   10.1972   12.4187 H   0  0  0  0  0  0  0  0  0  0  0  0
   38.3689    8.5944   13.1543 H   0  0  0  0  0  0  0  0  0  0  0  0
   36.0776    9.3661   13.6003 H   0  0  0  0  0  0  0  0  0  0  0  0
  1  2  1  0
  1 10  1  0
  1 28  1  0
  1 29  1  0
  2 11  2  0
  2 12  1  0
  3  6  2  0
  3  7  1  0
  3 30  1  0
  4  5  2  0
  4  8  1  0
  4 12  1  0
  5  6  1  0
  5 31  1  0
  6 32  1  0
  7  8  2  0
  7 14  1  0
  8 13  1  0
  9 10  1  0
  9 33  1  0
  9 34  1  0
  9 35  1  0
 10 13  1  0
 10 36  1  1
 12 37  1  0
 13 38  1  0
 14 15  2  0
 14 19  1  0
 15 16  1  0
 15 39  1  0
 16 17  2  0
 16 40  1  0
 17 18  1  0
 17 41  1  0
 18 19  2  0
 18 20  1  0
 19 42  1  0
 20 21  1  0
 21 22  1  0
 21 43  1  0
 21 44  1  0
 22 23  2  0
 22 27  1  0
 23 24  1  0
 23 45  1  0
 24 25  2  0
 24 46  1  0
 25 26  1  0
 25 47  1  0
 26 27  2  0
 26 48  1  0
 27 49  1  0
M  END
$$$$
