EAM_ref
     RDKit          3D

 52 55  0  0  1  0  0  0  0  0999 V2000
   30.0640   48.5180   -7.0500 Cl  0  0  0  0  0  0  0  0  0  0  0  0
   29.0760   49.1150   -5.7480 C   0  0  0  0  0  0  0  0  0  0  0  0
   29.4380   48.8300   -4.4430 C   0  0  0  0  0  0  0  0  0  0  0  0
   28.6500   49.2820   -3.4020 C   0  0  0  0  0  0  0  0  0  0  0  0
   27.9370   49.8640   -6.0320 C   0  0  0  0  0  0  0  0  0  0  0  0
   27.1490   50.3230   -4.9760 C   0  0  0  0  0  0  0  0  0  0  0  0
   27.5180   50.0660   -3.6500 C   0  0  0  0  0  0  0  0  0  0  0  0
   26.6630   50.4900   -2.5010 C   0  0  0  0  0  0  0  0  0  0  0  0
   25.4340   50.7350   -2.8010 N   0  0  0  0  0  0  0  0  0  0  0  0
   27.2720   50.4370   -1.1350 C   0  0  0  0  0  0  0  0  0  0  0  0
   26.5010   50.1460   -0.0080 C   0  0  0  0  0  0  0  0  0  0  0  0
   26.9420   50.5620    1.2500 C   0  0  0  0  0  0  0  0  0  0  0  0
   28.1760   51.1830    1.4220 C   0  0  0  0  0  0  0  0  0  0  0  0
   28.9860   51.4230    0.3120 C   0  0  0  0  0  0  0  0  0  0  0  0
   30.2210   52.0450    0.4010 O   0  0  0  0  0  0  0  0  0  0  0  0
   30.8290   52.2390    1.6800 C   0  0  0  0  0  0  0  0  0  0  0  0
   28.5320   51.0310   -0.9440 C   0  0  0  0  0  0  0  0  0  0  0  0
   25.1990   49.5540   -0.0700 N   0  0  0  0  0  0  0  0  0  0  0  0
   24.1840   50.0970   -0.8260 C   0  0  0  0  0  0  0  0  0  0  0  0
   23.0880   49.3970   -0.6560 N   0  0  0  0  0  0  0  0  0  0  0  0
   23.3830   48.3730    0.2570 N   0  0  0  0  0  0  0  0  0  0  0  0
   24.6440   48.4840    0.5990 C   0  0  0  0  0  0  0  0  0  0  0  0
   25.3360   47.5810    1.5530 C   0  0  0  0  0  0  0  0  0  0  0  0
   24.5290   51.2470   -1.7650 C   0  0  2  0  0  0  0  0  0  0  0  0
   23.2930   51.7520   -2.5170 C   0  0  0  0  0  0  0  0  0  0  0  0
   23.6190   52.9410   -3.4060 C   0  0  0  0  0  0  0  0  0  0  0  0
   24.6110   53.6270   -3.1960 O   0  0  0  0  0  0  0  0  0  0  0  0
   22.7760   53.2000   -4.4070 N   0  0  0  0  0  0  0  0  0  0  0  0
   23.0040   54.3190   -5.3120 C   0  0  0  0  0  0  0  0  0  0  0  0
   21.7710   54.6940   -6.1080 C   0  0  0  0  0  0  0  0  0  0  0  0
   30.3102   48.2278   -4.2372 H   0  0  0  0  0  0  0  0  0  0  0  0
   28.9481   48.9809   -2.4119 H   0  0  0  0  0  0  0  0  0  0  0  0
   27.6648   50.0822   -7.0490 H   0  0  0  0  0  0  0  0  0  0  0  0
   26.2630   50.8954   -5.2136 H   0  0  0  0  0  0  0  0  0  0  0  0
   26.3408   50.3927    2.1242 H   0  0  0  0  0  0  0  0  0  0  0  0
   28.4830   51.4678    2.4080 H   0  0  0  0  0  0  0  0  0  0  0  0
   31.8422   52.6176    1.5467 H   0  0  0  0  0  0  0  0  0  0  0  0
   30.2721   52.9759    2.2586 H   0  0  0  0  0  0  0  0  0  0  0  0
   30.8946   51.3075    2.2450 H   0  0  0  0  0  0  0  0  0  0  0  0
   29.1392   51.3215   -1.7895 H   0  0  0  0  0  0  0  0  0  0  0  0
   24.6745   46.8169    1.9624 H   0  0  0  0  0  0  0  0  0  0  0  0
   26.1687   47.0602    1.0803 H   0  0  0  0  0  0  0  0  0  0  0  0
   25.7441   48.1284    2.3986 H   0  0  0  0  0  0  0  0  0  0  0  0
   24.9822   52.0686   -1.2007 H   0  0  0  0  0  0  0  0  0  0  0  0
   22.5191   52.0538   -1.8123 H   0  0  0  0  0  0  0  0  0  0  0  0
   22.8753   50.9540   -3.1256 H   0  0  0  0  0  0  0  0  0  0  0  0
   21.9594   52.6238   -4.5652 H   0  0  0  0  0  0  0  0  0  0  0  0
   23.8100   54.0534   -5.9986 H   0  0  0  0  0  0  0  0  0  0  0  0
   23.3408   55.2053   -4.7690 H   0  0  0  0  0  0  0  0  0  0  0  0
   22.0328   55.2978   -6.9723 H   0  0  0  0  0  0  0  0  0  0  0  0
   21.2166   53.8333   -6.4780 H   0  0  0  0  0  0  0  0  0  0  0  0
   21.1275   55.3339   -5.5180 H   0  0  0  0  0  0  0  0  0  0  0  0
  1  2  1  0
  2  3  2  0
  2  5  1  0
  3  4  1  0
  3 31  1  0
  4  7  2  0
  4 32  1  0
  5  6  2  0
  5 33  1  0
  6  7  1  0
  6 34  1  0
  7  8  1  0
  8  9  2  0
  8 10  1  0
  9 24  1  0
 10 11  2  0
 10 17  1  0
 11 12  1  0
 11 18  1  0
 12 13  2  0
 12 35  1  0
 13 14  1  0
 13 36  1  0
 14 15  1  0
 14 17  2  0
 15 16  1  0
 16 37  1  0
 16 38  1  0
 16 39  1  0
 17 40  1  0
 18 19  1  0
 18 22  1  0
 19 20  2  0
 19 24  1  0
 20 21  1  0
 21 22  2  0
 22 23  1  0
 23 41  1  0
 23 42  1  0
 23 43  1  0
 24 25  1  0
 24 44  1  1
 25 26  1  0
 25 45  1  0
 25 46  1  0
 26 27  2  0
 26 28  1  0
 28 29  1  0
 28 47  1  0
 29 30  1  0
 29 48  1  0
 29 49  1  0
 30 50  1  0
 30 51  1  0
 30 52  1  0
M  END
$$$$
