G6A_ref
     RDKit          3D

 47 50  0  0  1  0  0  0  0  0999 V2000
   48.9010   34.8130   30.4810 C   0  0  0  0  0  0  0  0  0  0  0  0
   37.1320   26.5140   36.2330 C   0  0  0  0  0  0  0  0  0  0  0  0
   38.2640   27.1710   36.9540 C   0  0  0  0  0  0  0  0  0  0  0  0
   38.5190   26.3570   35.7020 C   0  0  0  0  0  0  0  0  0  0  0  0
   47.5280   34.8470   31.1690 C   0  0  0  0  0  0  0  0  0  0  0  0
   46.6350   33.8930   30.9750 O   0  0  0  0  0  0  0  0  0  0  0  0
   46.9900   35.7430   32.0320 N   0  0  0  0  0  0  0  0  0  0  0  0
   45.8270   35.3620   32.3690 N   0  0  0  0  0  0  0  0  0  0  0  0
   45.5470   34.1890   31.7290 C   0  0  0  0  0  0  0  0  0  0  0  0
   44.3010   33.4070   31.8360 C   0  0  0  0  0  0  0  0  0  0  0  0
   43.2130   33.8020   32.6200 C   0  0  0  0  0  0  0  0  0  0  0  0
   42.0870   32.9840   32.6390 C   0  0  0  0  0  0  0  0  0  0  0  0
   44.2100   32.2030   31.1160 C   0  0  0  0  0  0  0  0  0  0  0  0
   43.0760   31.3710   31.1840 C   0  0  0  0  0  0  0  0  0  0  0  0
   43.0360   30.0670   30.4250 C   0  0  0  0  0  0  0  0  0  0  0  0
   41.9900   31.7880   31.9470 C   0  0  0  0  0  0  0  0  0  0  0  0
   40.7500   30.9510   32.0470 C   0  0  0  0  0  0  0  0  0  0  0  0
   40.6450   30.0430   33.1170 C   0  0  0  0  0  0  0  0  0  0  0  0
   39.5210   29.2010   33.2980 C   0  0  0  0  0  0  0  0  0  0  0  0
   39.5490   28.2860   34.4810 C   0  0  0  0  0  0  0  0  0  0  0  0
   40.4020   28.4830   35.3640 O   0  0  0  0  0  0  0  0  0  0  0  0
   38.5850   27.2970   34.6010 N   0  0  0  0  0  0  0  0  0  0  0  0
   38.4600   29.3230   32.3610 C   0  0  0  0  0  0  0  0  0  0  0  0
   38.5450   30.2290   31.3010 C   0  0  0  0  0  0  0  0  0  0  0  0
   39.6930   31.0460   31.1330 C   0  0  0  0  0  0  0  0  0  0  0  0
   39.7830   32.0540   29.9890 C   0  0  0  0  0  0  0  0  0  0  0  0
   49.1625   35.7783   30.0519 H   0  0  0  0  0  0  0  0  0  0  0  0
   49.6888   34.5250   31.1757 H   0  0  0  0  0  0  0  0  0  0  0  0
   48.9191   34.0915   29.6642 H   0  0  0  0  0  0  0  0  0  0  0  0
   36.4041   27.1411   35.7293 H   0  0  0  0  0  0  0  0  0  0  0  0
   36.6613   25.6406   36.6850 H   0  0  0  0  0  0  0  0  0  0  0  0
   38.6039   26.7479   37.8979 H   0  0  0  0  0  0  0  0  0  0  0  0
   38.3096   28.2612   36.9668 H   0  0  0  0  0  0  0  0  0  0  0  0
   38.9893   25.3789   35.6443 H   0  0  0  0  0  0  0  0  0  0  0  0
   43.2363   34.7163   33.1948 H   0  0  0  0  0  0  0  0  0  0  0  0
   41.2552   33.2828   33.2517 H   0  0  0  0  0  0  0  0  0  0  0  0
   45.0484   31.8840   30.5120 H   0  0  0  0  0  0  0  0  0  0  0  0
   42.0350   29.7789   30.1057 H   0  0  0  0  0  0  0  0  0  0  0  0
   43.6125   30.1900   29.5108 H   0  0  0  0  0  0  0  0  0  0  0  0
   43.4727   29.2604   31.0144 H   0  0  0  0  0  0  0  0  0  0  0  0
   41.4801   29.9990   33.8036 H   0  0  0  0  0  0  0  0  0  0  0  0
   38.0277   27.0712   33.7853 H   0  0  0  0  0  0  0  0  0  0  0  0
   37.5575   28.7511   32.4741 H   0  0  0  0  0  0  0  0  0  0  0  0
   37.7187   30.3114   30.6101 H   0  0  0  0  0  0  0  0  0  0  0  0
   38.8049   32.2442   29.5449 H   0  0  0  0  0  0  0  0  0  0  0  0
   40.1591   33.0088   30.3368 H   0  0  0  0  0  0  0  0  0  0  0  0
   40.4596   31.6949   29.2133 H   0  0  0  0  0  0  0  0  0  0  0  0
  1  5  1  0
  1 27  1  0
  1 28  1  0
  1 29  1  0
  2  3  1  0
  2  4  1  0
  2 30  1  0
  2 31  1  0
  3  4  1  0
  3 32  1  0
  3 33  1  0
  4 22  1  0
  4 34  1  0
  5  6  1  0
  5  7  2  0
  6  9  1  0
  7  8  1  0
  8  9  2  0
  9 10  1  0
 10 11  2  0
 10 13  1  0
 11 12  1  0
 11 35  1  0
 12 16  2  0
 12 36  1  0
 13 14  2  0
 13 37  1  0
 14 15  1  0
 14 16  1  0
 15 38  1  0
 15 39  1  0
 15 40  1  0
 16 17  1  0
 17 18  2  0
 17 25  1  0
 18 19  1  0
 18 41  1  0
 19 20  1  0
 19 23  2  0
 20 21  2  0
 20 22  1  0
 22 42  1  0
 23 24  1  0
 23 43  1  0
 24 25  2  0
 24 44  1  0
 25 26  1  0
 26 45  1  0
 26 46  1  0
 26 47  1  0
M  END
$$$$
