3X0_ref
     RDKit          3D

 40 43  0  0  1  0  0  0  0  0999 V2000
  -13.8710   -7.5630    1.3080 C   0  0  2  0  0  0  0  0  0  0  0  0
  -13.1140   -7.4480    2.6410 C   0  0  0  0  0  0  0  0  0  0  0  0
  -11.1670   -6.4790    3.7270 C   0  0  0  0  0  0  0  0  0  0  0  0
   -9.9700   -5.7600    3.6960 C   0  0  0  0  0  0  0  0  0  0  0  0
   -9.3640   -5.3380    4.8900 C   0  0  0  0  0  0  0  0  0  0  0  0
   -9.8900   -5.7210    6.1240 C   0  0  0  0  0  0  0  0  0  0  0  0
  -11.0680   -6.4750    6.1610 C   0  0  0  0  0  0  0  0  0  0  0  0
  -12.7580   -5.7140    0.0240 N   0  0  0  0  0  0  0  0  0  0  0  0
  -14.4480   -4.4390   -0.4060 N   0  0  0  0  0  0  0  0  0  0  0  0
  -14.8570   -5.5070    0.3490 N   0  0  0  0  0  0  0  0  0  0  0  0
  -11.6690   -6.8270    4.9810 C   0  0  0  0  0  0  0  0  0  0  0  0
  -11.4960   -6.3170    0.1300 C   0  0  0  0  0  0  0  0  0  0  0  0
   -9.1650   -5.2480    7.6010 Cl  0  0  0  0  0  0  0  0  0  0  0  0
  -11.7980   -6.8180    2.5230 N   0  0  0  0  0  0  0  0  0  0  0  0
  -11.0630   -6.8920    1.3200 C   0  0  0  0  0  0  0  0  0  0  0  0
   -9.8440   -7.5560    1.3690 C   0  0  0  0  0  0  0  0  0  0  0  0
   -9.0100   -7.6210    0.2740 C   0  0  0  0  0  0  0  0  0  0  0  0
   -9.3850   -7.0370   -0.9210 C   0  0  0  0  0  0  0  0  0  0  0  0
  -10.6180   -6.4020   -1.0000 C   0  0  0  0  0  0  0  0  0  0  0  0
  -13.8070   -6.2610    0.6210 C   0  0  0  0  0  0  0  0  0  0  0  0
  -15.2710   -8.0880    1.5750 C   0  0  0  0  0  0  0  0  0  0  0  0
  -13.1400   -4.5680   -0.5810 C   0  0  0  0  0  0  0  0  0  0  0  0
  -12.2540   -3.6470   -1.3770 C   0  0  0  0  0  0  0  0  0  0  0  0
  -13.3681   -8.3085    0.6903 H   0  0  0  0  0  0  0  0  0  0  0  0
  -13.0034   -8.4392    3.0846 H   0  0  0  0  0  0  0  0  0  0  0  0
  -13.7280   -6.8545    3.3218 H   0  0  0  0  0  0  0  0  0  0  0  0
   -9.5232   -5.4228    2.7734 H   0  0  0  0  0  0  0  0  0  0  0  0
   -8.4665   -4.7393    4.8495 H   0  0  0  0  0  0  0  0  0  0  0  0
  -11.5045   -6.7674    7.1046 H   0  0  0  0  0  0  0  0  0  0  0  0
  -12.5772   -7.4009    5.0793 H   0  0  0  0  0  0  0  0  0  0  0  0
   -9.5151   -8.0365    2.2795 H   0  0  0  0  0  0  0  0  0  0  0  0
   -8.0683   -8.1398    0.3521 H   0  0  0  0  0  0  0  0  0  0  0  0
   -8.7344   -7.0943   -1.7788 H   0  0  0  0  0  0  0  0  0  0  0  0
  -10.9005   -5.9742   -1.9462 H   0  0  0  0  0  0  0  0  0  0  0  0
  -15.8316   -8.1931    0.6457 H   0  0  0  0  0  0  0  0  0  0  0  0
  -15.2449   -9.0684    2.0520 H   0  0  0  0  0  0  0  0  0  0  0  0
  -15.8295   -7.4252    2.2301 H   0  0  0  0  0  0  0  0  0  0  0  0
  -12.7495   -2.6996   -1.5878 H   0  0  0  0  0  0  0  0  0  0  0  0
  -11.3315   -3.4085   -0.8536 H   0  0  0  0  0  0  0  0  0  0  0  0
  -11.9854   -4.0695   -2.3432 H   0  0  0  0  0  0  0  0  0  0  0  0
  1  2  1  0
  1 20  1  0
  1 21  1  0
  1 24  1  6
  2 14  1  0
  2 25  1  0
  2 26  1  0
  3  4  2  0
  3 11  1  0
  3 14  1  0
  4  5  1  0
  4 27  1  0
  5  6  2  0
  5 28  1  0
  6  7  1  0
  6 13  1  0
  7 11  2  0
  7 29  1  0
  8 12  1  0
  8 20  1  0
  8 22  1  0
  9 10  1  0
  9 22  2  0
 10 20  2  0
 11 30  1  0
 12 15  2  0
 12 19  1  0
 14 15  1  0
 15 16  1  0
 16 17  2  0
 16 31  1  0
 17 18  1  0
 17 32  1  0
 18 19  2  0
 18 33  1  0
 19 34  1  0
 21 35  1  0
 21 36  1  0
 21 37  1  0
 22 23  1  0
 23 38  1  0
 23 39  1  0
 23 40  1  0
M  END
$$$$
