62E_ref
     RDKit          3D

 67 72  0  0  1  0  0  0  0  0999 V2000
   19.7790  -11.8040   57.7940 C   0  0  0  0  0  0  0  0  0  0  0  0
   20.3400  -12.3550   58.9500 C   0  0  0  0  0  0  0  0  0  0  0  0
   21.6230  -11.9510   59.4210 C   0  0  0  0  0  0  0  0  0  0  0  0
   21.0920  -13.3760   61.0500 C   0  0  0  0  0  0  0  0  0  0  0  0
   19.0030   -8.7130   56.5180 C   0  0  0  0  0  0  0  0  0  0  0  0
   17.5170   -7.5020   57.7190 C   0  0  0  0  0  0  0  0  0  0  0  0
   13.4350  -12.5280   58.7860 C   0  0  0  0  0  0  0  0  0  0  0  0
   22.3860  -10.9820   58.7420 C   0  0  0  0  0  0  0  0  0  0  0  0
   21.8200  -10.4110   57.5750 C   0  0  0  0  0  0  0  0  0  0  0  0
   13.9460  -11.1840   58.9150 C   0  0  0  0  0  0  0  0  0  0  0  0
   14.3050  -13.3470   58.1230 C   0  0  0  0  0  0  0  0  0  0  0  0
   20.5200  -10.8170   57.1220 C   0  0  0  0  0  0  0  0  0  0  0  0
   15.1870  -11.0320   58.3270 C   0  0  0  0  0  0  0  0  0  0  0  0
   16.3180   -7.3460   58.5360 C   0  0  0  0  0  0  0  0  0  0  0  0
   15.5590   -8.4820   58.7880 C   0  0  0  0  0  0  0  0  0  0  0  0
   15.9830   -9.7870   58.2190 C   0  0  0  0  0  0  0  0  0  0  0  0
   20.2010  -15.0240   62.7940 C   0  0  0  0  0  0  0  0  0  0  0  0
   18.6400  -17.0810   67.9070 C   0  0  0  0  0  0  0  0  0  0  0  0
   17.1520  -17.8860   65.9790 C   0  0  0  0  0  0  0  0  0  0  0  0
   17.5960  -17.4870   68.9910 C   0  0  0  0  0  0  0  0  0  0  0  0
   16.4540  -18.7810   67.0640 C   0  0  0  0  0  0  0  0  0  0  0  0
   17.9070  -16.6690   66.6160 C   0  0  2  0  0  0  0  0  0  0  0  0
   16.0590  -19.9050   70.2260 C   0  0  0  0  0  0  0  0  0  0  0  0
   18.7620  -15.7970   65.6670 C   0  0  0  0  0  0  0  0  0  0  0  0
   19.7830  -16.5470   64.7850 C   0  0  0  0  0  0  0  0  0  0  0  0
   15.4070  -18.7460   69.4210 C   0  0  0  0  0  0  0  0  0  0  0  0
   22.0320  -12.5610   60.6240 N   0  0  0  0  0  0  0  0  0  0  0  0
   18.4940   -6.6780   57.2420 N   0  0  0  0  0  0  0  0  0  0  0  0
   19.3610   -7.3980   56.5420 N   0  0  0  0  0  0  0  0  0  0  0  0
   17.1090   -9.9330   57.4800 N   0  0  0  0  0  0  0  0  0  0  0  0
   17.8350   -8.8300   57.2510 N   0  0  0  0  0  0  0  0  0  0  0  0
   21.1560  -14.1140   62.2260 N   0  0  0  0  0  0  0  0  0  0  0  0
   20.6230  -15.5670   64.0310 N   0  0  0  0  0  0  0  0  0  0  0  0
   16.3050  -18.0490   68.3960 N   0  0  1  0  0  0  0  0  0  0  0  0
   19.1290  -15.2950   62.2760 O   0  0  0  0  0  0  0  0  0  0  0  0
   15.7380  -12.5420   57.6370 S   0  0  0  0  0  0  0  0  0  0  0  0
   19.6320  -13.4960   60.0200 S   0  0  0  0  0  0  0  0  0  0  0  0
   19.7940  -10.0230   55.7270 S   0  0  0  0  0  0  0  0  0  0  0  0
   18.7979  -12.0998   57.4515 H   0  0  0  0  0  0  0  0  0  0  0  0
   12.4756  -12.8428   59.1639 H   0  0  0  0  0  0  0  0  0  0  0  0
   23.3401  -10.6549   59.1143 H   0  0  0  0  0  0  0  0  0  0  0  0
   22.3628   -9.6451   57.0400 H   0  0  0  0  0  0  0  0  0  0  0  0
   13.3723  -10.3925   59.3539 H   0  0  0  0  0  0  0  0  0  0  0  0
   14.1793  -14.3985   57.9110 H   0  0  0  0  0  0  0  0  0  0  0  0
   16.0174   -6.3782   58.9106 H   0  0  0  0  0  0  0  0  0  0  0  0
   14.6369   -8.3810   59.3147 H   0  0  0  0  0  0  0  0  0  0  0  0
   19.4124  -17.8278   67.7199 H   0  0  0  0  0  0  0  0  0  0  0  0
   19.1743  -16.2177   68.3064 H   0  0  0  0  0  0  0  0  0  0  0  0
   16.4479  -17.5438   65.2194 H   0  0  0  0  0  0  0  0  0  0  0  0
   17.8655  -18.5197   65.4520 H   0  0  0  0  0  0  0  0  0  0  0  0
   17.2583  -16.6193   69.5566 H   0  0  0  0  0  0  0  0  0  0  0  0
   18.0290  -18.2040   69.6858 H   0  0  0  0  0  0  0  0  0  0  0  0
   17.0576  -19.6595   67.2983 H   0  0  0  0  0  0  0  0  0  0  0  0
   15.4645  -19.1102   66.7436 H   0  0  0  0  0  0  0  0  0  0  0  0
   17.1277  -15.9813   66.9539 H   0  0  0  0  0  0  0  0  0  0  0  0
   15.3064  -20.4220   70.8217 H   0  0  0  0  0  0  0  0  0  0  0  0
   16.5157  -20.6433   69.5665 H   0  0  0  0  0  0  0  0  0  0  0  0
   16.8194  -19.5514   70.9217 H   0  0  0  0  0  0  0  0  0  0  0  0
   19.2838  -15.0575   66.2628 H   0  0  0  0  0  0  0  0  0  0  0  0
   18.0862  -15.2422   65.0141 H   0  0  0  0  0  0  0  0  0  0  0  0
   19.2890  -17.2523   64.1147 H   0  0  0  0  0  0  0  0  0  0  0  0
   20.4253  -17.1607   65.4127 H   0  0  0  0  0  0  0  0  0  0  0  0
   15.0837  -17.9407   70.0831 H   0  0  0  0  0  0  0  0  0  0  0  0
   14.5302  -19.0780   68.8628 H   0  0  0  0  0  0  0  0  0  0  0  0
   21.9942  -13.9641   62.7720 H   0  0  0  0  0  0  0  0  0  0  0  0
   21.5167  -15.3051   64.4227 H   0  0  0  0  0  0  0  0  0  0  0  0
   15.7902  -17.2220   68.1254 H   0  0  0  0  0  0  0  0  0  0  0  0
  1  2  2  0
  1 12  1  0
  1 39  1  0
  2  3  1  0
  2 37  1  0
  3  8  2  0
  3 27  1  0
  4 27  2  0
  4 32  1  0
  4 37  1  0
  5 29  2  0
  5 31  1  0
  5 38  1  0
  6 14  1  0
  6 28  2  0
  6 31  1  0
  7 10  1  0
  7 11  2  0
  7 40  1  0
  8  9  1  0
  8 41  1  0
  9 12  2  0
  9 42  1  0
 10 13  2  0
 10 43  1  0
 11 36  1  0
 11 44  1  0
 12 38  1  0
 13 16  1  0
 13 36  1  0
 14 15  2  0
 14 45  1  0
 15 16  1  0
 15 46  1  0
 16 30  2  0
 17 32  1  0
 17 33  1  0
 17 35  2  0
 18 20  1  0
 18 22  1  0
 18 47  1  0
 18 48  1  0
 19 21  1  0
 19 22  1  0
 19 49  1  0
 19 50  1  0
 20 34  1  0
 20 51  1  0
 20 52  1  0
 21 34  1  0
 21 53  1  0
 21 54  1  0
 22 24  1  0
 22 55  1  1
 23 26  1  0
 23 56  1  0
 23 57  1  0
 23 58  1  0
 24 25  1  0
 24 59  1  0
 24 60  1  0
 25 33  1  0
 25 61  1  0
 25 62  1  0
 26 34  1  0
 26 63  1  0
 26 64  1  0
 28 29  1  0
 30 31  1  0
 32 65  1  0
 33 66  1  0
 34 67  1  6
M  CHG  1  34   1
M  END
$$$$
