AM6_ref
     RDKit          3D

 77 81  0  0  1  0  0  0  0  0999 V2000
   16.4110   -2.6680   42.8290 C   0  0  0  0  0  0  0  0  0  0  0  0
   15.5150   -1.7630   42.1840 C   0  0  0  0  0  0  0  0  0  0  0  0
   16.0080   -0.7930   41.2340 C   0  0  0  0  0  0  0  0  0  0  0  0
   15.0810   -0.0140   40.5860 N   0  0  0  0  0  0  0  0  0  0  0  0
   15.2360    0.7860   39.4390 C   0  0  0  0  0  0  0  0  0  0  0  0
   14.0420    1.4690   39.0110 C   0  0  0  0  0  0  0  0  0  0  0  0
   13.2190    2.0870   40.0040 C   0  0  0  0  0  0  0  0  0  0  0  0
   12.0590    2.7960   39.6250 C   0  0  0  0  0  0  0  0  0  0  0  0
   11.7300    2.8830   38.2460 C   0  0  0  0  0  0  0  0  0  0  0  0
   12.5280    2.2750   37.1970 C   0  0  0  0  0  0  0  0  0  0  0  0
   13.7110    1.5480   37.5940 C   0  0  0  0  0  0  0  0  0  0  0  0
   12.0700    2.4480   35.7070 C   0  0  0  0  0  0  0  0  0  0  0  0
   11.1300    3.3030   35.4990 F   0  0  0  0  0  0  0  0  0  0  0  0
   11.5220    1.3120   35.2520 F   0  0  0  0  0  0  0  0  0  0  0  0
   13.0950    2.9440   34.9770 F   0  0  0  0  0  0  0  0  0  0  0  0
   17.3920   -0.6740   40.9050 C   0  0  0  0  0  0  0  0  0  0  0  0
   18.2550   -1.5890   41.5620 C   0  0  0  0  0  0  0  0  0  0  0  0
   17.7970   -2.5650   42.4910 C   0  0  0  0  0  0  0  0  0  0  0  0
   18.8380   -3.4970   43.0680 C   0  0  0  0  0  0  0  0  0  0  0  0
   23.1340   -3.3940   38.5690 N   0  0  0  0  0  0  0  0  0  0  0  0
   21.8460   -3.2760   38.8860 C   0  0  0  0  0  0  0  0  0  0  0  0
   21.4490   -2.5430   40.0720 C   0  0  0  0  0  0  0  0  0  0  0  0
   22.4320   -1.9440   40.9170 C   0  0  0  0  0  0  0  0  0  0  0  0
   23.6340   -2.1080   40.5390 N   0  0  0  0  0  0  0  0  0  0  0  0
   23.9770   -2.8070   39.4000 C   0  0  0  0  0  0  0  0  0  0  0  0
   20.1570   -2.4150   40.3940 N   0  0  0  0  0  0  0  0  0  0  0  0
   19.6470   -1.4760   41.2770 C   0  0  0  0  0  0  0  0  0  0  0  0
   20.2570   -0.5640   41.8300 O   0  0  0  0  0  0  0  0  0  0  0  0
   25.2210   -2.8840   39.1070 N   0  0  0  0  0  0  0  0  0  0  0  0
   16.2740    0.9610   38.7930 O   0  0  0  0  0  0  0  0  0  0  0  0
   14.5690    0.8760   36.5390 C   0  0  0  0  0  0  0  0  0  0  0  0
   27.0160    0.1090   40.4560 C   0  0  0  0  0  0  0  0  0  0  0  0
   28.3450   -0.5490   40.3810 C   0  0  0  0  0  0  0  0  0  0  0  0
   28.4850   -1.9620   39.8900 C   0  0  0  0  0  0  0  0  0  0  0  0
   27.2970   -2.7580   39.4580 C   0  0  0  0  0  0  0  0  0  0  0  0
   26.1090   -2.0060   39.5660 C   0  0  0  0  0  0  0  0  0  0  0  0
   25.8810   -0.6230   40.0290 C   0  0  0  0  0  0  0  0  0  0  0  0
   30.1370    1.0030   42.9610 C   0  0  0  0  0  0  0  0  0  0  0  0
   31.4820    0.7410   42.3210 N   0  0  0  0  0  0  0  0  0  0  0  0
   31.5920   -0.5110   41.4800 C   0  0  0  0  0  0  0  0  0  0  0  0
   30.8280   -0.0750   40.3670 C   0  0  0  0  0  0  0  0  0  0  0  0
   29.3840    0.2420   40.7710 N   0  0  0  0  0  0  0  0  0  0  0  0
   29.3780    1.4240   41.7860 C   0  0  0  0  0  0  0  0  0  0  0  0
   32.1540    0.3250   43.5220 C   0  0  0  0  0  0  0  0  0  0  0  0
   16.0525   -3.4062   43.5314 H   0  0  0  0  0  0  0  0  0  0  0  0
   14.4579   -1.8223   42.4008 H   0  0  0  0  0  0  0  0  0  0  0  0
   14.1551   -0.0364   40.9898 H   0  0  0  0  0  0  0  0  0  0  0  0
   13.6463    2.3760   40.9220 H   0  0  0  0  0  0  0  0  0  0  0  0
   11.4885    3.3488   40.3568 H   0  0  0  0  0  0  0  0  0  0  0  0
   10.8529    3.4535   37.9758 H   0  0  0  0  0  0  0  0  0  0  0  0
   17.8067    0.0579   40.2308 H   0  0  0  0  0  0  0  0  0  0  0  0
   19.6432   -2.9666   43.5776 H   0  0  0  0  0  0  0  0  0  0  0  0
   18.3790   -4.1759   43.7836 H   0  0  0  0  0  0  0  0  0  0  0  0
   19.2516   -4.1149   42.2802 H   0  0  0  0  0  0  0  0  0  0  0  0
   21.1215   -3.6974   38.2080 H   0  0  0  0  0  0  0  0  0  0  0  0
   22.3177   -1.4476   41.8645 H   0  0  0  0  0  0  0  0  0  0  0  0
   19.5143   -3.0822   39.9884 H   0  0  0  0  0  0  0  0  0  0  0  0
   25.4823   -3.4034   38.2786 H   0  0  0  0  0  0  0  0  0  0  0  0
   14.7482    1.5525   35.7092 H   0  0  0  0  0  0  0  0  0  0  0  0
   15.5393    0.5322   36.7893 H   0  0  0  0  0  0  0  0  0  0  0  0
   14.0207    0.0295   36.1245 H   0  0  0  0  0  0  0  0  0  0  0  0
   26.8848    1.1334   40.7684 H   0  0  0  0  0  0  0  0  0  0  0  0
   29.4525   -2.4385   39.8464 H   0  0  0  0  0  0  0  0  0  0  0  0
   27.4316   -3.7591   39.0867 H   0  0  0  0  0  0  0  0  0  0  0  0
   24.9194   -0.1361   40.0227 H   0  0  0  0  0  0  0  0  0  0  0  0
   30.1948    1.8260   43.6800 H   0  0  0  0  0  0  0  0  0  0  0  0
   29.7017    0.1074   43.4182 H   0  0  0  0  0  0  0  0  0  0  0  0
   31.8853    1.5604   41.8871 H   0  0  0  0  0  0  0  0  0  0  0  0
   31.1522   -1.3813   41.9781 H   0  0  0  0  0  0  0  0  0  0  0  0
   32.6372   -0.6861   41.2132 H   0  0  0  0  0  0  0  0  0  0  0  0
   30.8475   -0.8585   39.6103 H   0  0  0  0  0  0  0  0  0  0  0  0
   31.2617    0.7844   39.8485 H   0  0  0  0  0  0  0  0  0  0  0  0
   29.7477    2.3405   41.3196 H   0  0  0  0  0  0  0  0  0  0  0  0
   28.3671    1.6523   42.1191 H   0  0  0  0  0  0  0  0  0  0  0  0
   33.1931    0.1130   43.2564 H   0  0  0  0  0  0  0  0  0  0  0  0
   32.2038    1.1597   44.2280 H   0  0  0  0  0  0  0  0  0  0  0  0
   31.7204   -0.5626   43.9989 H   0  0  0  0  0  0  0  0  0  0  0  0
  1  2  2  0
  1 18  1  0
  1 45  1  0
  2  3  1  0
  2 46  1  0
  3  4  1  0
  3 16  2  0
  4  5  1  0
  4 47  1  0
  5  6  1  0
  5 30  2  0
  6  7  2  0
  6 11  1  0
  7  8  1  0
  7 48  1  0
  8  9  2  0
  8 49  1  0
  9 10  1  0
  9 50  1  0
 10 11  2  0
 10 12  1  0
 11 31  1  0
 12 13  1  0
 12 14  1  0
 12 15  1  0
 16 17  1  0
 16 51  1  0
 17 18  2  0
 17 27  1  0
 18 19  1  0
 19 52  1  0
 19 53  1  0
 19 54  1  0
 20 21  2  0
 20 25  1  0
 21 22  1  0
 21 55  1  0
 22 23  2  0
 22 26  1  0
 23 24  1  0
 23 56  1  0
 24 25  2  0
 25 29  1  0
 26 27  1  0
 26 57  1  0
 27 28  2  0
 29 36  1  0
 29 58  1  0
 31 59  1  0
 31 60  1  0
 31 61  1  0
 32 33  2  0
 32 37  1  0
 32 62  1  0
 33 34  1  0
 33 42  1  0
 34 35  2  0
 34 63  1  0
 35 36  1  0
 35 64  1  0
 36 37  2  0
 37 65  1  0
 38 39  1  0
 38 43  1  0
 38 66  1  0
 38 67  1  0
 39 40  1  0
 39 44  1  0
 39 68  1  0
 40 41  1  0
 40 69  1  0
 40 70  1  0
 41 42  1  0
 41 71  1  0
 41 72  1  0
 42 43  1  0
 43 73  1  0
 43 74  1  0
 44 75  1  0
 44 76  1  0
 44 77  1  0
M  CHG  1  39   1
M  END
$$$$
