3SG_ref
     RDKit          3D

 61 64  0  0  1  0  0  0  0  0999 V2000
   51.6440   -3.4240  103.4070 C   0  0  0  0  0  0  0  0  0  0  0  0
   52.0600   -2.1720  103.0080 C   0  0  0  0  0  0  0  0  0  0  0  0
   49.8770   -1.5120  102.6170 C   0  0  0  0  0  0  0  0  0  0  0  0
   49.3840   -2.7460  103.0050 C   0  0  0  0  0  0  0  0  0  0  0  0
   50.2830   -3.7440  103.3930 C   0  0  0  0  0  0  0  0  0  0  0  0
   48.6190   -7.0930  103.9870 C   0  0  0  0  0  0  0  0  0  0  0  0
   48.6720   -7.2380  105.3790 C   0  0  0  0  0  0  0  0  0  0  0  0
   47.9880  -10.8700  106.0010 C   0  0  0  0  0  0  0  0  0  0  0  0
   48.1340   -9.4780  103.7670 C   0  0  0  0  0  0  0  0  0  0  0  0
   48.3470   -8.2110  103.2010 C   0  0  0  0  0  0  0  0  0  0  0  0
   47.8360  -10.5710  102.7910 C   0  0  0  0  0  0  0  0  0  0  0  0
   48.2590  -11.7280  100.7230 C   0  0  0  0  0  0  0  0  0  0  0  0
   46.4260  -12.4510  102.1000 C   0  0  0  0  0  0  0  0  0  0  0  0
   46.7610  -11.4250  103.0030 C   0  0  0  0  0  0  0  0  0  0  0  0
   45.1870  -14.3740  101.6810 O   0  0  0  0  0  0  0  0  0  0  0  0
   42.0930  -15.6010  105.0140 C   0  0  0  0  0  0  0  0  0  0  0  0
   41.1020  -15.7000  104.0240 C   0  0  0  0  0  0  0  0  0  0  0  0
   41.2200  -14.9630  102.8600 C   0  0  0  0  0  0  0  0  0  0  0  0
   42.3120  -14.1310  102.6800 C   0  0  0  0  0  0  0  0  0  0  0  0
   41.9850  -16.3770  106.2730 C   0  0  0  0  0  0  0  0  0  0  0  0
   43.1250  -18.4570  105.8370 C   0  0  0  0  0  0  0  0  0  0  0  0
   52.5470   -4.3460  103.7900 F   0  0  0  0  0  0  0  0  0  0  0  0
   51.1760   -1.2670  102.6280 N   0  0  0  0  0  0  0  0  0  0  0  0
   49.8880   -5.0100  103.8380 N   0  0  0  0  0  0  0  0  0  0  0  0
   48.8700   -5.7760  103.3460 C   0  0  0  0  0  0  0  0  0  0  0  0
   48.1950   -5.4430  102.3930 O   0  0  0  0  0  0  0  0  0  0  0  0
   48.4580   -8.4760  105.9540 C   0  0  0  0  0  0  0  0  0  0  0  0
   48.1800   -9.6020  105.1880 C   0  0  0  0  0  0  0  0  0  0  0  0
   46.7910  -10.7750  106.8450 N   0  0  0  0  0  0  0  0  0  0  0  0
   48.5740  -10.7270  101.6200 C   0  0  0  0  0  0  0  0  0  0  0  0
   47.2020  -12.5910  100.9450 C   0  0  0  0  0  0  0  0  0  0  0  0
   45.2860  -13.3760  102.3660 C   0  0  0  0  0  0  0  0  0  0  0  0
   44.3650  -13.1480  103.3520 N   0  0  0  0  0  0  0  0  0  0  0  0
   43.2980  -14.0220  103.6230 C   0  0  0  0  0  0  0  0  0  0  0  0
   43.1930  -14.7520  104.8050 C   0  0  0  0  0  0  0  0  0  0  0  0
   42.5060  -13.3830  101.5940 F   0  0  0  0  0  0  0  0  0  0  0  0
   41.9990  -15.7840  107.3460 O   0  0  0  0  0  0  0  0  0  0  0  0
   41.8710  -17.7280  106.2270 O   0  0  0  0  0  0  0  0  0  0  0  0
   53.1026   -1.8919  103.0092 H   0  0  0  0  0  0  0  0  0  0  0  0
   49.2185   -0.7155  102.3050 H   0  0  0  0  0  0  0  0  0  0  0  0
   48.3173   -2.9189  103.0040 H   0  0  0  0  0  0  0  0  0  0  0  0
   48.8814   -6.3961  106.0219 H   0  0  0  0  0  0  0  0  0  0  0  0
   48.8100  -11.0307  106.7014 H   0  0  0  0  0  0  0  0  0  0  0  0
   47.8618  -11.7712  105.4029 H   0  0  0  0  0  0  0  0  0  0  0  0
   48.2970   -8.0967  102.1283 H   0  0  0  0  0  0  0  0  0  0  0  0
   48.8474  -11.8326   99.8239 H   0  0  0  0  0  0  0  0  0  0  0  0
   46.1772  -11.2978  103.8956 H   0  0  0  0  0  0  0  0  0  0  0  0
   40.2445  -16.3458  104.1568 H   0  0  0  0  0  0  0  0  0  0  0  0
   40.4612  -15.0324  102.0938 H   0  0  0  0  0  0  0  0  0  0  0  0
   42.9191  -19.5204  105.7225 H   0  0  0  0  0  0  0  0  0  0  0  0
   43.5137  -18.0921  104.8851 H   0  0  0  0  0  0  0  0  0  0  0  0
   43.8980  -18.3365  106.5971 H   0  0  0  0  0  0  0  0  0  0  0  0
   50.4470   -5.4019  104.5818 H   0  0  0  0  0  0  0  0  0  0  0  0
   48.5175   -8.5468  107.0305 H   0  0  0  0  0  0  0  0  0  0  0  0
   46.6952  -11.6062  107.4087 H   0  0  0  0  0  0  0  0  0  0  0  0
   46.8277   -9.9743  107.4650 H   0  0  0  0  0  0  0  0  0  0  0  0
   45.9545  -10.6894  106.2730 H   0  0  0  0  0  0  0  0  0  0  0  0
   49.4044  -10.0899  101.4037 H   0  0  0  0  0  0  0  0  0  0  0  0
   46.9926  -13.3580  100.2123 H   0  0  0  0  0  0  0  0  0  0  0  0
   44.4303  -12.3104  103.9163 H   0  0  0  0  0  0  0  0  0  0  0  0
   43.9523  -14.6535  105.5665 H   0  0  0  0  0  0  0  0  0  0  0  0
  1  2  2  0
  1  5  1  0
  1 22  1  0
  2 23  1  0
  2 39  1  0
  3  4  1  0
  3 23  2  0
  3 40  1  0
  4  5  2  0
  4 41  1  0
  5 24  1  0
  6  7  2  0
  6 10  1  0
  6 25  1  0
  7 27  1  0
  7 42  1  0
  8 28  1  0
  8 29  1  0
  8 43  1  0
  8 44  1  0
  9 10  2  0
  9 11  1  0
  9 28  1  0
 10 45  1  0
 11 14  2  0
 11 30  1  0
 12 30  2  0
 12 31  1  0
 12 46  1  0
 13 14  1  0
 13 31  2  0
 13 32  1  0
 14 47  1  0
 15 32  2  0
 16 17  2  0
 16 20  1  0
 16 35  1  0
 17 18  1  0
 17 48  1  0
 18 19  2  0
 18 49  1  0
 19 34  1  0
 19 36  1  0
 20 37  2  0
 20 38  1  0
 21 38  1  0
 21 50  1  0
 21 51  1  0
 21 52  1  0
 24 25  1  0
 24 53  1  0
 25 26  2  0
 27 28  2  0
 27 54  1  0
 29 55  1  0
 29 56  1  0
 29 57  1  0
 30 58  1  0
 31 59  1  0
 32 33  1  0
 33 34  1  0
 33 60  1  0
 34 35  2  0
 35 61  1  0
M  CHG  1  29   1
M  END
$$$$
