Z34_ref
     RDKit          3D

 63 66  0  0  1  0  0  0  0  0999 V2000
    5.1670    9.4980   22.6840 C   0  0  0  0  0  0  0  0  0  0  0  0
    4.5580   10.4970   23.2650 F   0  0  0  0  0  0  0  0  0  0  0  0
    4.7310    8.9980   21.4340 C   0  0  0  0  0  0  0  0  0  0  0  0
    5.4490    7.9160   20.8570 C   0  0  0  0  0  0  0  0  0  0  0  0
    5.1090    7.4180   19.7160 F   0  0  0  0  0  0  0  0  0  0  0  0
    6.5520    7.3730   21.5290 C   0  0  0  0  0  0  0  0  0  0  0  0
    6.9080    7.8760   22.6980 N   0  0  0  0  0  0  0  0  0  0  0  0
    6.2790    8.8930   23.3080 C   0  0  0  0  0  0  0  0  0  0  0  0
    8.7690   10.6520   23.1460 O   0  0  0  0  0  0  0  0  0  0  0  0
    6.7270    9.3140   24.4840 O   0  0  0  0  0  0  0  0  0  0  0  0
    7.9970    9.3070   24.8900 C   0  0  0  0  0  0  0  0  0  0  0  0
    8.2880    8.5680   26.0390 C   0  0  0  0  0  0  0  0  0  0  0  0
    9.6040    8.4850   26.5530 C   0  0  0  0  0  0  0  0  0  0  0  0
   10.6400    9.1830   25.8600 C   0  0  0  0  0  0  0  0  0  0  0  0
   10.3510    9.9210   24.7000 C   0  0  0  0  0  0  0  0  0  0  0  0
    9.0240    9.9810   24.2100 C   0  0  0  0  0  0  0  0  0  0  0  0
    9.8480    7.7430   27.7040 C   0  0  0  0  0  0  0  0  0  0  0  0
    8.8450    7.1710   28.4040 N   0  0  0  0  0  0  0  0  0  0  0  0
   11.0680    7.5150   28.1710 N   0  0  0  0  0  0  0  0  0  0  0  0
    7.2120    6.3890   20.9760 O   0  0  0  0  0  0  0  0  0  0  0  0
    6.9160    5.1320   20.6630 C   0  0  0  0  0  0  0  0  0  0  0  0
    6.0020    4.4760   21.5340 C   0  0  0  0  0  0  0  0  0  0  0  0
    5.6300    3.1400   21.2940 C   0  0  0  0  0  0  0  0  0  0  0  0
    6.1770    2.4660   20.1900 C   0  0  0  0  0  0  0  0  0  0  0  0
    7.0910    3.1210   19.3150 C   0  0  0  0  0  0  0  0  0  0  0  0
    7.4470    4.4460   19.5700 C   0  0  0  0  0  0  0  0  0  0  0  0
    7.6220    2.4620   18.2090 C   0  0  0  0  0  0  0  0  0  0  0  0
    8.7210    1.6960   18.1090 N   0  0  0  0  0  0  0  0  0  0  0  0
    9.6460    1.3530   19.1300 C   0  0  0  0  0  0  0  0  0  0  0  0
    7.0060    2.5470   17.0210 N   0  0  0  0  0  0  0  0  0  0  0  0
    8.8780    1.2220   16.7790 C   0  0  0  0  0  0  0  0  0  0  0  0
    7.6770    1.8230   16.0210 C   0  0  0  0  0  0  0  0  0  0  0  0
    3.6490    9.5560   20.8000 N   0  0  0  0  0  0  0  0  0  0  0  0
    2.2900    9.1450   21.1650 C   0  0  0  0  0  0  0  0  0  0  0  0
    1.9080    9.2410   22.6240 C   0  0  0  0  0  0  0  0  0  0  0  0
    1.3480   10.2660   23.1250 O   0  0  0  0  0  0  0  0  0  0  0  0
    2.1520    8.1850   23.4590 O   0  0  0  0  0  0  0  0  0  0  0  0
    3.8580   10.5430   19.7630 C   0  0  0  0  0  0  0  0  0  0  0  0
    9.5579   11.0942   22.7966 H   0  0  0  0  0  0  0  0  0  0  0  0
    7.4447    8.0692   26.4924 H   0  0  0  0  0  0  0  0  0  0  0  0
   11.6617    9.1693   26.2015 H   0  0  0  0  0  0  0  0  0  0  0  0
   11.1348   10.4346   24.1741 H   0  0  0  0  0  0  0  0  0  0  0  0
    9.0526    6.7623   29.3148 H   0  0  0  0  0  0  0  0  0  0  0  0
    7.8867    7.2511   28.0940 H   0  0  0  0  0  0  0  0  0  0  0  0
   11.1708    7.0927   29.0865 H   0  0  0  0  0  0  0  0  0  0  0  0
   11.8863    7.8148   27.6535 H   0  0  0  0  0  0  0  0  0  0  0  0
    5.5809    4.9939   22.3827 H   0  0  0  0  0  0  0  0  0  0  0  0
    4.9370    2.6378   21.9533 H   0  0  0  0  0  0  0  0  0  0  0  0
    5.8933    1.4426   20.0058 H   0  0  0  0  0  0  0  0  0  0  0  0
    8.1424    4.9672   18.9255 H   0  0  0  0  0  0  0  0  0  0  0  0
   10.6472    1.6611   18.8309 H   0  0  0  0  0  0  0  0  0  0  0  0
    9.3605    1.8531   20.0506 H   0  0  0  0  0  0  0  0  0  0  0  0
    9.6149    0.2794   19.2912 H   0  0  0  0  0  0  0  0  0  0  0  0
    6.1586    3.0713   16.8559 H   0  0  0  0  0  0  0  0  0  0  0  0
    8.9555    0.1354   16.7341 H   0  0  0  0  0  0  0  0  0  0  0  0
    9.7582    1.7204   16.4241 H   0  0  0  0  0  0  0  0  0  0  0  0
    7.9633    2.4997   15.2247 H   0  0  0  0  0  0  0  0  0  0  0  0
    6.9855    1.0671   15.6445 H   0  0  0  0  0  0  0  0  0  0  0  0
    2.1660    8.1076   20.8502 H   0  0  0  0  0  0  0  0  0  0  0  0
    1.5639    9.7150   20.5834 H   0  0  0  0  0  0  0  0  0  0  0  0
    2.9308   11.0365   19.4701 H   0  0  0  0  0  0  0  0  0  0  0  0
    4.5561   11.3097   20.1022 H   0  0  0  0  0  0  0  0  0  0  0  0
    4.2933   10.0745   18.8796 H   0  0  0  0  0  0  0  0  0  0  0  0
  1  2  1  0
  1  3  2  0
  1  8  1  0
  3  4  1  0
  3 33  1  0
  4  5  1  0
  4  6  2  0
  6  7  1  0
  6 20  1  0
  7  8  2  0
  8 10  1  0
  9 16  1  0
  9 39  1  0
 10 11  1  0
 11 12  2  0
 11 16  1  0
 12 13  1  0
 12 40  1  0
 13 14  2  0
 13 17  1  0
 14 15  1  0
 14 41  1  0
 15 16  2  0
 15 42  1  0
 17 18  2  0
 17 19  1  0
 18 43  1  0
 18 44  1  0
 19 45  1  0
 19 46  1  0
 20 21  1  0
 21 22  2  0
 21 26  1  0
 22 23  1  0
 22 47  1  0
 23 24  2  0
 23 48  1  0
 24 25  1  0
 24 49  1  0
 25 26  2  0
 25 27  1  0
 26 50  1  0
 27 28  1  0
 27 30  2  0
 28 29  1  0
 28 31  1  0
 29 51  1  0
 29 52  1  0
 29 53  1  0
 30 32  1  0
 30 54  1  0
 31 32  1  0
 31 55  1  0
 31 56  1  0
 32 57  1  0
 32 58  1  0
 33 34  1  0
 33 38  1  0
 34 35  1  0
 34 59  1  0
 34 60  1  0
 35 36  2  0
 35 37  1  0
 38 61  1  0
 38 62  1  0
 38 63  1  0
M  CHG  3  18   1  30   1  37  -1
M  END
$$$$
