9M3_ref
     RDKit          3D

 77 81  0  0  1  0  0  0  0  0999 V2000
   -8.0950   29.9470   21.0370 C   0  0  0  0  0  0  0  0  0  0  0  0
   -7.2630   28.8250   21.2180 C   0  0  0  0  0  0  0  0  0  0  0  0
   -9.2050   27.3140   20.6750 C   0  0  0  0  0  0  0  0  0  0  0  0
   -9.4490   29.8150   20.6840 C   0  0  0  0  0  0  0  0  0  0  0  0
   -5.6240   26.5400   19.4210 O   0  0  0  0  0  0  0  0  0  0  0  0
   -6.0280   25.9710   20.4640 C   0  0  0  0  0  0  0  0  0  0  0  0
   -5.4560   24.6410   20.9130 C   0  0  0  0  0  0  0  0  0  0  0  0
   -6.0470   23.9270   21.9680 C   0  0  0  0  0  0  0  0  0  0  0  0
   -5.5390   22.6720   22.3470 C   0  0  0  0  0  0  0  0  0  0  0  0
   -4.4560   22.0840   21.6700 C   0  0  0  0  0  0  0  0  0  0  0  0
   -3.8790   20.7360   22.0280 C   0  0  0  0  0  0  0  0  0  0  0  0
   -3.2970   20.0790   20.7840 C   0  0  0  0  0  0  0  0  0  0  0  0
   -2.8260   20.9850   23.1070 C   0  0  0  0  0  0  0  0  0  0  0  0
   -4.8820   19.6940   22.5270 C   0  0  0  0  0  0  0  0  0  0  0  0
   -3.8850   22.8050   20.6170 C   0  0  0  0  0  0  0  0  0  0  0  0
   -4.3750   24.0680   20.2370 C   0  0  0  0  0  0  0  0  0  0  0  0
   -6.9870   26.3740   21.2020 N   0  0  0  0  0  0  0  0  0  0  0  0
   -7.7640   27.5260   21.0340 C   0  0  0  0  0  0  0  0  0  0  0  0
   -9.7220   25.8820   20.5250 C   0  0  0  0  0  0  0  0  0  0  0  0
  -10.0430   28.5550   20.4870 C   0  0  0  0  0  0  0  0  0  0  0  0
  -11.4880   28.4840   20.1570 C   0  0  0  0  0  0  0  0  0  0  0  0
  -11.9860   27.4660   19.4060 N   0  0  0  0  0  0  0  0  0  0  0  0
  -12.3290   29.4520   20.6420 N   0  0  0  0  0  0  0  0  0  0  0  0
  -13.6700   29.4230   20.3810 C   0  0  0  0  0  0  0  0  0  0  0  0
  -14.1540   28.3930   19.6350 N   0  0  0  0  0  0  0  0  0  0  0  0
  -13.3170   27.4160   19.1480 C   0  0  0  0  0  0  0  0  0  0  0  0
  -13.7850   26.3830   18.3960 N   0  0  0  0  0  0  0  0  0  0  0  0
  -14.5310   30.3670   20.8470 N   0  0  0  0  0  0  0  0  0  0  0  0
  -14.2630   31.5110   21.5480 C   0  0  0  0  0  0  0  0  0  0  0  0
  -15.3440   32.2160   22.0800 C   0  0  0  0  0  0  0  0  0  0  0  0
  -15.1500   33.3970   22.7950 C   0  0  0  0  0  0  0  0  0  0  0  0
  -13.8580   33.9090   22.9910 C   0  0  0  0  0  0  0  0  0  0  0  0
  -12.7640   33.2080   22.4560 C   0  0  0  0  0  0  0  0  0  0  0  0
  -12.9680   32.0230   21.7440 C   0  0  0  0  0  0  0  0  0  0  0  0
  -13.6550   35.1850   23.7910 C   0  0  0  0  0  0  0  0  0  0  0  0
  -14.6010   35.8700   24.1420 O   0  0  0  0  0  0  0  0  0  0  0  0
  -12.4350   35.5410   24.1590 N   0  0  0  0  0  0  0  0  0  0  0  0
  -11.7090   36.5500   23.3580 C   0  0  0  0  0  0  0  0  0  0  0  0
  -10.8420   37.3780   24.3040 C   0  0  0  0  0  0  0  0  0  0  0  0
  -10.1280   36.5210   25.2240 O   0  0  0  0  0  0  0  0  0  0  0  0
  -10.9500   35.7990   26.1560 C   0  0  0  0  0  0  0  0  0  0  0  0
  -11.8560   34.8670   25.3540 C   0  0  0  0  0  0  0  0  0  0  0  0
   -7.6827   30.9346   21.1836 H   0  0  0  0  0  0  0  0  0  0  0  0
   -6.2298   28.9708   21.4938 H   0  0  0  0  0  0  0  0  0  0  0  0
  -10.0379   30.7071   20.5937 H   0  0  0  0  0  0  0  0  0  0  0  0
   -6.8995   24.2907   22.5233 H   0  0  0  0  0  0  0  0  0  0  0  0
   -6.0124   22.1463   23.1585 H   0  0  0  0  0  0  0  0  0  0  0  0
   -3.0693   19.0280   20.9451 H   0  0  0  0  0  0  0  0  0  0  0  0
   -3.9687   20.1341   19.9278 H   0  0  0  0  0  0  0  0  0  0  0  0
   -2.3428   20.5157   20.4884 H   0  0  0  0  0  0  0  0  0  0  0  0
   -2.3459   20.0514   23.3920 H   0  0  0  0  0  0  0  0  0  0  0  0
   -2.0362   21.6534   22.7636 H   0  0  0  0  0  0  0  0  0  0  0  0
   -3.2592   21.4172   24.0105 H   0  0  0  0  0  0  0  0  0  0  0  0
   -4.4053   18.7403   22.7605 H   0  0  0  0  0  0  0  0  0  0  0  0
   -5.3770   20.0132   23.4421 H   0  0  0  0  0  0  0  0  0  0  0  0
   -5.6627   19.4924   21.7953 H   0  0  0  0  0  0  0  0  0  0  0  0
   -3.0521   22.4358   20.0433 H   0  0  0  0  0  0  0  0  0  0  0  0
   -3.9042   24.5805   19.4097 H   0  0  0  0  0  0  0  0  0  0  0  0
   -7.2575   25.7818   21.9726 H   0  0  0  0  0  0  0  0  0  0  0  0
  -10.7213   25.8005   20.9515 H   0  0  0  0  0  0  0  0  0  0  0  0
   -9.7791   25.5922   19.4769 H   0  0  0  0  0  0  0  0  0  0  0  0
   -9.1357   25.1576   21.0825 H   0  0  0  0  0  0  0  0  0  0  0  0
  -14.7711   26.3253   18.1857 H   0  0  0  0  0  0  0  0  0  0  0  0
  -13.1291   25.6995   18.0481 H   0  0  0  0  0  0  0  0  0  0  0  0
  -15.5105   30.1849   20.6653 H   0  0  0  0  0  0  0  0  0  0  0  0
  -16.3598   31.8917   21.9476 H   0  0  0  0  0  0  0  0  0  0  0  0
  -16.0158   33.9074   23.1936 H   0  0  0  0  0  0  0  0  0  0  0  0
  -11.7522   33.5706   22.5693 H   0  0  0  0  0  0  0  0  0  0  0  0
  -12.0678   31.6064   21.3389 H   0  0  0  0  0  0  0  0  0  0  0  0
  -12.4123   37.2387   22.8851 H   0  0  0  0  0  0  0  0  0  0  0  0
  -11.0842   36.0045   22.6495 H   0  0  0  0  0  0  0  0  0  0  0  0
  -11.4575   38.0834   24.8655 H   0  0  0  0  0  0  0  0  0  0  0  0
  -10.1308   37.9778   23.7359 H   0  0  0  0  0  0  0  0  0  0  0  0
  -11.5406   36.5015   26.7467 H   0  0  0  0  0  0  0  0  0  0  0  0
  -10.3287   35.2357   26.8524 H   0  0  0  0  0  0  0  0  0  0  0  0
  -11.2768   34.0181   24.9887 H   0  0  0  0  0  0  0  0  0  0  0  0
  -12.6572   34.5714   26.0354 H   0  0  0  0  0  0  0  0  0  0  0  0
  1  2  2  0
  1  4  1  0
  1 43  1  0
  2 18  1  0
  2 44  1  0
  3 18  2  0
  3 19  1  0
  3 20  1  0
  4 20  2  0
  4 45  1  0
  5  6  2  0
  6  7  1  0
  6 17  1  0
  7  8  2  0
  7 16  1  0
  8  9  1  0
  8 46  1  0
  9 10  2  0
  9 47  1  0
 10 11  1  0
 10 15  1  0
 11 12  1  0
 11 13  1  0
 11 14  1  0
 12 48  1  0
 12 49  1  0
 12 50  1  0
 13 51  1  0
 13 52  1  0
 13 53  1  0
 14 54  1  0
 14 55  1  0
 14 56  1  0
 15 16  2  0
 15 57  1  0
 16 58  1  0
 17 18  1  0
 17 59  1  0
 19 60  1  0
 19 61  1  0
 19 62  1  0
 20 21  1  0
 21 22  2  0
 21 23  1  0
 22 26  1  0
 23 24  2  0
 24 25  1  0
 24 28  1  0
 25 26  2  0
 26 27  1  0
 27 63  1  0
 27 64  1  0
 28 29  1  0
 28 65  1  0
 29 30  2  0
 29 34  1  0
 30 31  1  0
 30 66  1  0
 31 32  2  0
 31 67  1  0
 32 33  1  0
 32 35  1  0
 33 34  2  0
 33 68  1  0
 34 69  1  0
 35 36  2  0
 35 37  1  0
 37 38  1  0
 37 42  1  0
 38 39  1  0
 38 70  1  0
 38 71  1  0
 39 40  1  0
 39 72  1  0
 39 73  1  0
 40 41  1  0
 41 42  1  0
 41 74  1  0
 41 75  1  0
 42 76  1  0
 42 77  1  0
M  END
$$$$
