2KR_ref
     RDKit          3D

 42 45  0  0  1  0  0  0  0  0999 V2000
  -11.1160  -35.5170  -41.8190 C   0  0  0  0  0  0  0  0  0  0  0  0
  -12.3580  -36.1990  -42.1590 O   0  0  0  0  0  0  0  0  0  0  0  0
  -12.8240  -37.1680  -41.1890 C   0  0  0  0  0  0  0  0  0  0  0  0
  -12.2460  -37.4290  -40.0080 N   0  0  0  0  0  0  0  0  0  0  0  0
  -12.9940  -38.4140  -39.3710 C   0  0  0  0  0  0  0  0  0  0  0  0
  -12.8860  -39.0560  -38.1500 C   0  0  0  0  0  0  0  0  0  0  0  0
  -13.8290  -40.0510  -37.7770 C   0  0  0  0  0  0  0  0  0  0  0  0
  -14.8560  -40.3400  -38.6760 C   0  0  0  0  0  0  0  0  0  0  0  0
  -14.9570  -39.7120  -39.8440 N   0  0  0  0  0  0  0  0  0  0  0  0
  -14.0380  -38.7470  -40.2120 C   0  0  0  0  0  0  0  0  0  0  0  0
  -13.9390  -37.9590  -41.3280 N   0  0  0  0  0  0  0  0  0  0  0  0
  -14.7560  -37.9980  -42.4170 C   0  0  0  0  0  0  0  0  0  0  0  0
  -16.1150  -37.6650  -42.3830 C   0  0  0  0  0  0  0  0  0  0  0  0
  -16.8720  -37.7450  -43.5530 C   0  0  0  0  0  0  0  0  0  0  0  0
  -16.2780  -38.1480  -44.7370 C   0  0  0  0  0  0  0  0  0  0  0  0
  -16.9470  -38.2640  -46.0160 N   0  0  0  0  0  0  0  0  0  0  0  0
  -18.3560  -38.2280  -46.3110 C   0  0  0  0  0  0  0  0  0  0  0  0
  -18.7270  -38.1570  -47.6930 C   0  0  0  0  0  0  0  0  0  0  0  0
  -20.0690  -38.1150  -48.0620 C   0  0  0  0  0  0  0  0  0  0  0  0
  -21.0040  -38.1440  -47.0570 C   0  0  0  0  0  0  0  0  0  0  0  0
  -22.5230  -38.1030  -47.4200 C   0  0  0  0  0  0  0  0  0  0  0  0
  -20.5950  -38.2190  -45.6900 C   0  0  0  0  0  0  0  0  0  0  0  0
  -19.2830  -38.2630  -45.3710 N   0  0  0  0  0  0  0  0  0  0  0  0
  -14.9110  -38.4680  -44.7510 C   0  0  0  0  0  0  0  0  0  0  0  0
  -14.1740  -38.3940  -43.6020 C   0  0  0  0  0  0  0  0  0  0  0  0
  -10.7868  -34.9129  -42.6627 H   0  0  0  0  0  0  0  0  0  0  0  0
  -11.2623  -34.8562  -40.9679 H   0  0  0  0  0  0  0  0  0  0  0  0
  -10.3203  -36.2280  -41.5930 H   0  0  0  0  0  0  0  0  0  0  0  0
  -12.0806  -38.8097  -37.4735 H   0  0  0  0  0  0  0  0  0  0  0  0
  -13.8146  -40.5869  -36.8702 H   0  0  0  0  0  0  0  0  0  0  0  0
  -15.6078  -41.0824  -38.4517 H   0  0  0  0  0  0  0  0  0  0  0  0
  -16.5826  -37.3461  -41.4620 H   0  0  0  0  0  0  0  0  0  0  0  0
  -17.9020  -37.4399  -43.5115 H   0  0  0  0  0  0  0  0  0  0  0  0
  -16.3419  -38.3816  -46.8156 H   0  0  0  0  0  0  0  0  0  0  0  0
  -17.9664  -38.1325  -48.4596 H   0  0  0  0  0  0  0  0  0  0  0  0
  -20.3530  -38.0484  -49.0962 H   0  0  0  0  0  0  0  0  0  0  0  0
  -23.1515  -38.3896  -46.5766 H   0  0  0  0  0  0  0  0  0  0  0  0
  -22.8059  -37.1057  -47.7551 H   0  0  0  0  0  0  0  0  0  0  0  0
  -22.7161  -38.7928  -48.2388 H   0  0  0  0  0  0  0  0  0  0  0  0
  -21.3122  -38.2353  -44.8823 H   0  0  0  0  0  0  0  0  0  0  0  0
  -14.4220  -38.7518  -45.6720 H   0  0  0  0  0  0  0  0  0  0  0  0
  -13.1162  -38.5627  -43.6423 H   0  0  0  0  0  0  0  0  0  0  0  0
  1  2  1  0
  1 26  1  0
  1 27  1  0
  1 28  1  0
  2  3  1  0
  3  4  2  0
  3 11  1  0
  4  5  1  0
  5  6  1  0
  5 10  2  0
  6  7  2  0
  6 29  1  0
  7  8  1  0
  7 30  1  0
  8  9  2  0
  8 31  1  0
  9 10  1  0
 10 11  1  0
 11 12  1  0
 12 13  2  0
 12 25  1  0
 13 14  1  0
 13 32  1  0
 14 15  2  0
 14 33  1  0
 15 16  1  0
 15 24  1  0
 16 17  1  0
 16 34  1  0
 17 18  2  0
 17 23  1  0
 18 19  1  0
 18 35  1  0
 19 20  2  0
 19 36  1  0
 20 21  1  0
 20 22  1  0
 21 37  1  0
 21 38  1  0
 21 39  1  0
 22 23  2  0
 22 40  1  0
 24 25  2  0
 24 41  1  0
 25 42  1  0
M  END
$$$$
