NHT_ref
     RDKit          3D

 33 34  0  0  1  0  0  0  0  0999 V2000
   19.8120    3.3750   26.9670 C   0  0  2  0  0  0  0  0  0  0  0  0
   19.7470    1.9870   27.6010 C   0  0  1  0  0  0  0  0  0  0  0  0
   18.6040    1.1220   27.0730 C   0  0  2  0  0  0  0  0  0  0  0  0
   17.2930    1.9360   27.0860 C   0  0  1  0  0  0  0  0  0  0  0  0
   17.4960    3.1720   26.2110 C   0  0  1  0  0  0  0  0  0  0  0  0
   16.2650    4.0530   26.0850 C   0  0  0  0  0  0  0  0  0  0  0  0
   21.5420    1.8140   26.1930 C   0  0  0  0  0  0  0  0  0  0  0  0
   23.8610    1.4490   23.5400 C   0  0  0  0  0  0  0  0  0  0  0  0
   21.0790    1.3960   27.3340 N   0  0  0  0  0  0  0  0  0  0  0  0
   18.4960   -0.0520   27.8850 O   0  0  0  0  0  0  0  0  0  0  0  0
   16.2020    1.1640   26.5690 O   0  0  0  0  0  0  0  0  0  0  0  0
   18.5550    3.9860   26.7670 O   0  0  0  0  0  0  0  0  0  0  0  0
   22.6320    1.2580   25.6230 N   0  0  0  0  0  0  0  0  0  0  0  0
   15.7420    4.4250   27.3680 O   0  0  0  0  0  0  0  0  0  0  0  0
   20.6230    3.0640   25.3770 S   0  0  0  0  0  0  0  0  0  0  0  0
   22.6770    0.8730   24.2240 C   0  0  0  0  0  0  0  0  0  0  0  0
   20.4173    4.0727   27.5457 H   0  0  0  0  0  0  0  0  0  0  0  0
   19.6060    2.1043   28.6713 H   0  0  0  0  0  0  0  0  0  0  0  0
   18.8044    0.7800   26.0538 H   0  0  0  0  0  0  0  0  0  0  0  0
   17.0400    2.2209   28.1093 H   0  0  0  0  0  0  0  0  0  0  0  0
   17.7787    2.8706   25.2049 H   0  0  0  0  0  0  0  0  0  0  0  0
   15.4830    3.5379   25.5302 H   0  0  0  0  0  0  0  0  0  0  0  0
   16.5004    4.9565   25.5207 H   0  0  0  0  0  0  0  0  0  0  0  0
   24.0194    1.0080   22.5552 H   0  0  0  0  0  0  0  0  0  0  0  0
   23.7186    2.5119   23.4161 H   0  0  0  0  0  0  0  0  0  0  0  0
   24.7738    1.3695   24.1187 H   0  0  0  0  0  0  0  0  0  0  0  0
   21.5107    0.7092   27.9397 H   0  0  0  0  0  0  0  0  0  0  0  0
   17.8163   -0.6184   27.5008 H   0  0  0  0  0  0  0  0  0  0  0  0
   15.4681    1.2234   27.2001 H   0  0  0  0  0  0  0  0  0  0  0  0
   23.2068    0.6976   26.2404 H   0  0  0  0  0  0  0  0  0  0  0  0
   14.9494    3.8979   27.5578 H   0  0  0  0  0  0  0  0  0  0  0  0
   22.7171   -0.2166   24.2205 H   0  0  0  0  0  0  0  0  0  0  0  0
   21.7508    1.1753   23.7391 H   0  0  0  0  0  0  0  0  0  0  0  0
  1  2  1  0
  1 12  1  0
  1 15  1  0
  1 17  1  1
  2  3  1  0
  2  9  1  0
  2 18  1  1
  3  4  1  0
  3 10  1  0
  3 19  1  6
  4  5  1  0
  4 11  1  0
  4 20  1  1
  5  6  1  0
  5 12  1  0
  5 21  1  6
  6 14  1  0
  6 22  1  0
  6 23  1  0
  7  9  2  0
  7 13  1  0
  7 15  1  0
  8 16  1  0
  8 24  1  0
  8 25  1  0
  8 26  1  0
  9 27  1  0
 10 28  1  0
 11 29  1  0
 13 16  1  0
 13 30  1  0
 14 31  1  0
 16 32  1  0
 16 33  1  0
M  CHG  1   9   1
M  END
$$$$
