AEE_ref
     RDKit          3D

 66 70  0  0  1  0  0  0  0  0999 V2000
  -50.7820   -0.6920  -12.4130 C   0  0  0  0  0  0  0  0  0  0  0  0
  -49.4830   -1.0040  -11.6760 C   0  0  0  0  0  0  0  0  0  0  0  0
  -49.1860   -2.4340  -11.7620 N   0  0  0  0  0  0  0  0  0  0  0  0
  -50.2950   -3.2120  -11.2020 C   0  0  0  0  0  0  0  0  0  0  0  0
  -50.3250   -3.0340   -9.6850 C   0  0  0  0  0  0  0  0  0  0  0  0
  -48.9970   -2.7720  -13.1700 C   0  0  0  0  0  0  0  0  0  0  0  0
  -50.3000   -2.5340  -13.9180 C   0  0  0  0  0  0  0  0  0  0  0  0
  -50.6950   -1.1260  -13.8110 N   0  0  0  0  0  0  0  0  0  0  0  0
  -49.8460   -0.2520  -14.6260 C   0  0  0  0  0  0  0  0  0  0  0  0
  -50.5050   -0.0850  -15.9900 C   0  0  0  0  0  0  0  0  0  0  0  0
  -51.5450    0.8070  -16.1470 C   0  0  0  0  0  0  0  0  0  0  0  0
  -52.1510    0.9550  -17.3830 C   0  0  0  0  0  0  0  0  0  0  0  0
  -50.0770   -0.8310  -17.0690 C   0  0  0  0  0  0  0  0  0  0  0  0
  -50.6790   -0.6800  -18.3070 C   0  0  0  0  0  0  0  0  0  0  0  0
  -51.7220    0.2090  -18.4630 C   0  0  0  0  0  0  0  0  0  0  0  0
  -52.3280    0.3730  -19.6960 C   0  0  0  0  0  0  0  0  0  0  0  0
  -53.3660    1.1590  -19.9400 N   0  0  0  0  0  0  0  0  0  0  0  0
  -51.9570   -0.2180  -20.8220 C   0  0  0  0  0  0  0  0  0  0  0  0
  -52.7630    0.1890  -21.7830 C   0  0  0  0  0  0  0  0  0  0  0  0
  -53.6530    1.0650  -21.2250 C   0  0  0  0  0  0  0  0  0  0  0  0
  -54.5870    1.6230  -21.9920 N   0  0  0  0  0  0  0  0  0  0  0  0
  -54.6590    1.3430  -23.2760 C   0  0  0  0  0  0  0  0  0  0  0  0
  -53.8170    0.5090  -23.8430 N   0  0  0  0  0  0  0  0  0  0  0  0
  -52.8630   -0.0780  -23.1290 C   0  0  0  0  0  0  0  0  0  0  0  0
  -52.0340   -0.9090  -23.7250 N   0  0  0  0  0  0  0  0  0  0  0  0
  -52.3410   -1.3270  -25.0890 C   0  0  2  0  0  0  0  0  0  0  0  0
  -51.2870   -2.3080  -25.5730 C   0  0  0  0  0  0  0  0  0  0  0  0
  -52.3440   -0.1220  -26.0010 C   0  0  0  0  0  0  0  0  0  0  0  0
  -52.2240    1.1440  -25.4670 C   0  0  0  0  0  0  0  0  0  0  0  0
  -52.2300    2.2450  -26.3050 C   0  0  0  0  0  0  0  0  0  0  0  0
  -52.3550    2.0790  -27.6710 C   0  0  0  0  0  0  0  0  0  0  0  0
  -52.4720    0.8110  -28.2030 C   0  0  0  0  0  0  0  0  0  0  0  0
  -52.4670   -0.2920  -27.3680 C   0  0  0  0  0  0  0  0  0  0  0  0
  -50.9755    0.3822  -12.4135 H   0  0  0  0  0  0  0  0  0  0  0  0
  -51.6881   -1.1211  -11.9876 H   0  0  0  0  0  0  0  0  0  0  0  0
  -49.4896   -0.5871  -10.6725 H   0  0  0  0  0  0  0  0  0  0  0  0
  -48.6596   -0.4619  -12.1452 H   0  0  0  0  0  0  0  0  0  0  0  0
  -50.0846   -4.2625  -11.4108 H   0  0  0  0  0  0  0  0  0  0  0  0
  -51.2932   -3.0496  -11.5964 H   0  0  0  0  0  0  0  0  0  0  0  0
  -51.2937   -2.5746   -9.4475 H   0  0  0  0  0  0  0  0  0  0  0  0
  -49.3877   -3.1311   -9.1019 H   0  0  0  0  0  0  0  0  0  0  0  0
  -50.0738   -2.0032   -9.4849 H   0  0  0  0  0  0  0  0  0  0  0  0
  -48.7298   -3.8279  -13.2437 H   0  0  0  0  0  0  0  0  0  0  0  0
  -48.1424   -2.2381  -13.5846 H   0  0  0  0  0  0  0  0  0  0  0  0
  -51.1497   -3.1523  -13.6294 H   0  0  0  0  0  0  0  0  0  0  0  0
  -50.1604   -2.7438  -14.9796 H   0  0  0  0  0  0  0  0  0  0  0  0
  -51.6236   -1.0433  -14.2023 H   0  0  0  0  0  0  0  0  0  0  0  0
  -48.8315   -0.6401  -14.7092 H   0  0  0  0  0  0  0  0  0  0  0  0
  -49.7800    0.7308  -14.1542 H   0  0  0  0  0  0  0  0  0  0  0  0
  -51.8895    1.3977  -15.3109 H   0  0  0  0  0  0  0  0  0  0  0  0
  -52.9583    1.6678  -17.4653 H   0  0  0  0  0  0  0  0  0  0  0  0
  -49.2621   -1.5326  -16.9607 H   0  0  0  0  0  0  0  0  0  0  0  0
  -50.3001   -1.2889  -19.1122 H   0  0  0  0  0  0  0  0  0  0  0  0
  -53.8332    1.7007  -19.2283 H   0  0  0  0  0  0  0  0  0  0  0  0
  -51.1394   -0.9102  -20.9548 H   0  0  0  0  0  0  0  0  0  0  0  0
  -55.4354    1.8044  -23.8594 H   0  0  0  0  0  0  0  0  0  0  0  0
  -51.4879   -1.5351  -23.1504 H   0  0  0  0  0  0  0  0  0  0  0  0
  -53.3215   -1.8069  -25.1211 H   0  0  0  0  0  0  0  0  0  0  0  0
  -51.4854   -2.6876  -26.5748 H   0  0  0  0  0  0  0  0  0  0  0  0
  -50.2862   -1.8721  -25.5734 H   0  0  0  0  0  0  0  0  0  0  0  0
  -51.2685   -3.1906  -24.9344 H   0  0  0  0  0  0  0  0  0  0  0  0
  -51.7963    1.4174  -24.5159 H   0  0  0  0  0  0  0  0  0  0  0  0
  -52.0236    3.2288  -25.9185 H   0  0  0  0  0  0  0  0  0  0  0  0
  -52.3320    2.9403  -28.3227 H   0  0  0  0  0  0  0  0  0  0  0  0
  -52.5667    0.6784  -29.2712 H   0  0  0  0  0  0  0  0  0  0  0  0
  -52.5764   -1.2710  -27.8045 H   0  0  0  0  0  0  0  0  0  0  0  0
  1  2  1  0
  1  8  1  0
  1 34  1  0
  1 35  1  0
  2  3  1  0
  2 36  1  0
  2 37  1  0
  3  4  1  0
  3  6  1  0
  4  5  1  0
  4 38  1  0
  4 39  1  0
  5 40  1  0
  5 41  1  0
  5 42  1  0
  6  7  1  0
  6 43  1  0
  6 44  1  0
  7  8  1  0
  7 45  1  0
  7 46  1  0
  8  9  1  0
  8 47  1  0
  9 10  1  0
  9 48  1  0
  9 49  1  0
 10 11  2  0
 10 13  1  0
 11 12  1  0
 11 50  1  0
 12 15  2  0
 12 51  1  0
 13 14  2  0
 13 52  1  0
 14 15  1  0
 14 53  1  0
 15 16  1  0
 16 17  1  0
 16 18  2  0
 17 20  1  0
 17 54  1  0
 18 19  1  0
 18 55  1  0
 19 20  2  0
 19 24  1  0
 20 21  1  0
 21 22  2  0
 22 23  1  0
 22 56  1  0
 23 24  2  0
 24 25  1  0
 25 26  1  0
 25 57  1  0
 26 27  1  0
 26 28  1  0
 26 58  1  1
 27 59  1  0
 27 60  1  0
 27 61  1  0
 28 29  2  0
 28 33  1  0
 29 30  1  0
 29 62  1  0
 30 31  2  0
 30 63  1  0
 31 32  1  0
 31 64  1  0
 32 33  2  0
 32 65  1  0
 33 66  1  0
M  CHG  1   8   1
M  END
$$$$
