CK8_ref
     RDKit          3D

 42 44  0  0  1  0  0  0  0  0999 V2000
   25.8400   38.9330    7.6930 C   0  0  0  0  0  0  0  0  0  0  0  0
   24.8070   39.6250    7.1580 N   0  0  0  0  0  0  0  0  0  0  0  0
   24.6340   40.8890    7.5400 C   0  0  0  0  0  0  0  0  0  0  0  0
   25.4070   41.5310    8.4140 N   0  0  0  0  0  0  0  0  0  0  0  0
   26.4580   40.9120    8.9870 C   0  0  0  0  0  0  0  0  0  0  0  0
   26.7260   39.5300    8.6380 C   0  0  0  0  0  0  0  0  0  0  0  0
   27.2300   41.7030    9.9210 C   0  0  0  0  0  0  0  0  0  0  0  0
   28.4880   41.5580   10.5510 C   0  0  0  0  0  0  0  0  0  0  0  0
   28.8380   42.5880   11.3930 N   0  0  0  0  0  0  0  0  0  0  0  0
   27.8800   43.5160   11.4230 C   0  0  0  0  0  0  0  0  0  0  0  0
   26.5200   43.2120   10.4510 S   0  0  0  0  0  0  0  0  0  0  0  0
   29.4860   40.4140   10.4090 C   0  0  0  0  0  0  0  0  0  0  0  0
   27.9500   44.7810   12.2540 C   0  0  0  0  0  0  0  0  0  0  0  0
   23.5220   41.5710    6.9430 N   0  0  0  0  0  0  0  0  0  0  0  0
   22.9310   42.8980    7.0440 C   0  0  0  0  0  0  0  0  0  0  0  0
   23.4270   43.9110    7.9250 C   0  0  0  0  0  0  0  0  0  0  0  0
   22.8120   45.1810    7.9760 C   0  0  0  0  0  0  0  0  0  0  0  0
   21.6760   45.4890    7.1470 C   0  0  0  0  0  0  0  0  0  0  0  0
   21.1900   44.4540    6.2710 C   0  0  0  0  0  0  0  0  0  0  0  0
   21.8070   43.1830    6.2250 C   0  0  0  0  0  0  0  0  0  0  0  0
   21.0260   46.8450    7.1980 N   0  0  0  0  0  0  0  0  0  0  0  0
   19.8470   47.2080    6.3560 C   0  0  0  0  0  0  0  0  0  0  0  0
   21.5130   47.9360    8.0960 C   0  0  0  0  0  0  0  0  0  0  0  0
   24.6784   38.5474    8.0474 H   0  0  0  0  0  0  0  0  0  0  0  0
   26.2657   39.3528    9.6552 H   0  0  0  0  0  0  0  0  0  0  0  0
   30.3542   41.0738   10.4748 H   0  0  0  0  0  0  0  0  0  0  0  0
   29.8207   40.2390   11.4179 H   0  0  0  0  0  0  0  0  0  0  0  0
   30.1776   40.2892    9.5352 H   0  0  0  0  0  0  0  0  0  0  0  0
   26.7625   45.3210   12.4990 H   0  0  0  0  0  0  0  0  0  0  0  0
   27.5326   44.9434   13.4144 H   0  0  0  0  0  0  0  0  0  0  0  0
   28.3266   44.1530   13.3340 H   0  0  0  0  0  0  0  0  0  0  0  0
   22.9880   40.9796    6.3185 H   0  0  0  0  0  0  0  0  0  0  0  0
   23.7606   43.7034    8.9189 H   0  0  0  0  0  0  0  0  0  0  0  0
   23.1386   45.8772    8.7328 H   0  0  0  0  0  0  0  0  0  0  0  0
   20.2584   44.6005    5.7451 H   0  0  0  0  0  0  0  0  0  0  0  0
   20.8664   42.5349    6.3461 H   0  0  0  0  0  0  0  0  0  0  0  0
   19.6415   48.2787    6.3564 H   0  0  0  0  0  0  0  0  0  0  0  0
   20.0006   46.8952    5.3228 H   0  0  0  0  0  0  0  0  0  0  0  0
   18.9608   46.6887    6.7219 H   0  0  0  0  0  0  0  0  0  0  0  0
   21.2412   48.9205    7.7172 H   0  0  0  0  0  0  0  0  0  0  0  0
   21.0907   47.8129    9.0938 H   0  0  0  0  0  0  0  0  0  0  0  0
   22.5983   47.9172    8.1904 H   0  0  0  0  0  0  0  0  0  0  0  0
  1  2  2  0
  1  6  1  0
  1 24  1  0
  2  3  1  0
  3  4  2  0
  3 14  1  0
  4  5  1  0
  5  6  2  0
  5  7  1  0
  6 25  1  0
  7  8  2  0
  7 11  1  0
  8  9  1  0
  8 12  1  0
  9 10  2  0
 10 11  1  0
 10 13  1  0
 12 26  1  0
 12 27  1  0
 12 28  1  0
 13 29  1  0
 13 30  1  0
 13 31  1  0
 14 15  1  0
 14 32  1  0
 15 16  2  0
 15 20  1  0
 16 17  1  0
 16 33  1  0
 17 18  2  0
 17 34  1  0
 18 19  1  0
 18 21  1  0
 19 20  2  0
 19 35  1  0
 20 36  1  0
 21 22  1  0
 21 23  1  0
 22 37  1  0
 22 38  1  0
 22 39  1  0
 23 40  1  0
 23 41  1  0
 23 42  1  0
M  END
$$$$
