FPB_ref
     RDKit          3D

 55 57  0  0  1  0  0  0  0  0999 V2000
   68.2630   73.7830   72.4110 O   0  0  0  0  0  0  0  0  0  0  0  0
   67.1160   74.0040   72.7710 C   0  0  0  0  0  0  0  0  0  0  0  0
   65.9070   73.8210   71.8860 C   0  0  0  0  0  0  0  0  0  0  0  0
   66.1740   73.5750   70.3950 C   0  0  2  0  0  0  0  0  0  0  0  0
   64.8690   73.1980   69.7890 N   0  0  0  0  0  0  0  0  0  0  0  0
   67.2530   72.4860   70.1910 C   0  0  0  0  0  0  0  0  0  0  0  0
   67.4150   72.0760   68.7300 C   0  0  0  0  0  0  0  0  0  0  0  0
   66.5600   71.1280   68.1780 C   0  0  0  0  0  0  0  0  0  0  0  0
   65.6180   70.5810   68.9340 F   0  0  0  0  0  0  0  0  0  0  0  0
   66.6530   70.7580   66.8560 C   0  0  0  0  0  0  0  0  0  0  0  0
   67.6460   71.3150   66.0820 C   0  0  0  0  0  0  0  0  0  0  0  0
   68.5180   72.2650   66.6300 C   0  0  0  0  0  0  0  0  0  0  0  0
   68.4140   72.6630   67.9560 C   0  0  0  0  0  0  0  0  0  0  0  0
   66.8810   74.4110   74.0560 N   0  0  0  0  0  0  0  0  0  0  0  0
   67.9020   74.6280   75.1040 C   0  0  1  0  0  0  0  0  0  0  0  0
   67.1520   75.3520   76.2130 C   0  0  0  0  0  0  0  0  0  0  0  0
   65.7150   74.8600   76.0840 C   0  0  0  0  0  0  0  0  0  0  0  0
   65.5380   74.6950   74.5690 C   0  0  0  0  0  0  0  0  0  0  0  0
   68.3090   73.3260   75.8190 C   0  0  0  0  0  0  0  0  0  0  0  0
   68.5790   72.0950   75.0420 N   0  0  0  0  0  0  0  0  0  0  0  0
   67.5380   71.3190   74.5770 C   0  0  0  0  0  0  0  0  0  0  0  0
   66.3950   71.6490   74.8130 O   0  0  0  0  0  0  0  0  0  0  0  0
   67.8620   70.0710   73.8620 C   0  0  0  0  0  0  0  0  0  0  0  0
   69.1940   69.7750   73.5920 C   0  0  0  0  0  0  0  0  0  0  0  0
   69.5060   68.5780   72.9550 C   0  0  0  0  0  0  0  0  0  0  0  0
   68.5010   67.6760   72.6020 C   0  0  0  0  0  0  0  0  0  0  0  0
   67.1730   67.9490   72.8920 C   0  0  0  0  0  0  0  0  0  0  0  0
   66.8600   69.1450   73.5380 C   0  0  0  0  0  0  0  0  0  0  0  0
   65.2131   74.6466   72.0269 H   0  0  0  0  0  0  0  0  0  0  0  0
   65.4060   72.9428   72.3034 H   0  0  0  0  0  0  0  0  0  0  0  0
   66.4570   74.4764   69.8599 H   0  0  0  0  0  0  0  0  0  0  0  0
   65.0019   72.9199   68.8261 H   0  0  0  0  0  0  0  0  0  0  0  0
   64.4173   72.4476   70.2969 H   0  0  0  0  0  0  0  0  0  0  0  0
   64.2536   74.0013   69.7950 H   0  0  0  0  0  0  0  0  0  0  0  0
   67.0642   71.6027   70.8058 H   0  0  0  0  0  0  0  0  0  0  0  0
   68.2589   72.8063   70.4317 H   0  0  0  0  0  0  0  0  0  0  0  0
   65.9637   70.0403   66.4436 H   0  0  0  0  0  0  0  0  0  0  0  0
   67.7388   71.0243   65.0478 H   0  0  0  0  0  0  0  0  0  0  0  0
   69.2924   72.6918   66.0095 H   0  0  0  0  0  0  0  0  0  0  0  0
   69.1108   73.3489   68.3849 H   0  0  0  0  0  0  0  0  0  0  0  0
   68.7921   75.1260   74.7409 H   0  0  0  0  0  0  0  0  0  0  0  0
   67.1649   76.4194   75.9858 H   0  0  0  0  0  0  0  0  0  0  0  0
   67.5807   75.2719   77.2145 H   0  0  0  0  0  0  0  0  0  0  0  0
   65.0038   75.5674   76.5039 H   0  0  0  0  0  0  0  0  0  0  0  0
   65.5705   73.9062   76.5929 H   0  0  0  0  0  0  0  0  0  0  0  0
   64.8381   73.8842   74.3678 H   0  0  0  0  0  0  0  0  0  0  0  0
   65.1693   75.6320   74.1477 H   0  0  0  0  0  0  0  0  0  0  0  0
   67.6273   73.0245   76.6194 H   0  0  0  0  0  0  0  0  0  0  0  0
   69.2368   73.5392   76.3521 H   0  0  0  0  0  0  0  0  0  0  0  0
   69.5377   71.8420   74.8578 H   0  0  0  0  0  0  0  0  0  0  0  0
   70.0095   70.4386   73.8408 H   0  0  0  0  0  0  0  0  0  0  0  0
   70.5375   68.3397   72.7409 H   0  0  0  0  0  0  0  0  0  0  0  0
   68.8051   66.7523   72.1370 H   0  0  0  0  0  0  0  0  0  0  0  0
   66.3952   67.1993   72.8644 H   0  0  0  0  0  0  0  0  0  0  0  0
   65.8397   69.3365   73.8309 H   0  0  0  0  0  0  0  0  0  0  0  0
  1  2  2  0
  2  3  1  0
  2 14  1  0
  3  4  1  0
  3 29  1  0
  3 30  1  0
  4  5  1  0
  4  6  1  0
  4 31  1  6
  5 32  1  0
  5 33  1  0
  5 34  1  0
  6  7  1  0
  6 35  1  0
  6 36  1  0
  7  8  2  0
  7 13  1  0
  8  9  1  0
  8 10  1  0
 10 11  2  0
 10 37  1  0
 11 12  1  0
 11 38  1  0
 12 13  2  0
 12 39  1  0
 13 40  1  0
 14 15  1  0
 14 18  1  0
 15 16  1  0
 15 19  1  0
 15 41  1  6
 16 17  1  0
 16 42  1  0
 16 43  1  0
 17 18  1  0
 17 44  1  0
 17 45  1  0
 18 46  1  0
 18 47  1  0
 19 20  1  0
 19 48  1  0
 19 49  1  0
 20 21  1  0
 20 50  1  0
 21 22  2  0
 21 23  1  0
 23 24  2  0
 23 28  1  0
 24 25  1  0
 24 51  1  0
 25 26  2  0
 25 52  1  0
 26 27  1  0
 26 53  1  0
 27 28  2  0
 27 54  1  0
 28 55  1  0
M  CHG  1   5   1
M  END
$$$$
