QZW_ref
     RDKit          3D

 39 42  0  0  1  0  0  0  0  0999 V2000
   44.9400    3.7000   18.3620 C   0  0  0  0  0  0  0  0  0  0  0  0
   44.0360    3.6060   16.1030 N   0  0  0  0  0  0  0  0  0  0  0  0
   43.1740    3.4600   13.9630 O   0  0  0  0  0  0  0  0  0  0  0  0
   43.8750    0.0300   10.7210 S   0  0  0  0  0  0  0  0  0  0  0  0
   44.4210    4.3710   17.1380 C   0  0  0  0  0  0  0  0  0  0  0  0
   43.7960    7.6220   15.8230 N   0  0  0  0  0  0  0  0  0  0  0  0
   43.5590    4.1880   15.0130 C   0  0  0  0  0  0  0  0  0  0  0  0
   40.7100    8.3700   10.0980 N   0  0  0  0  0  0  0  0  0  0  0  0
   43.2040    2.0260   14.1010 C   0  0  0  0  0  0  0  0  0  0  0  0
   41.5340    6.2520    9.9410 N   0  0  0  0  0  0  0  0  0  0  0  0
   43.1630    1.4230   12.7330 C   0  0  0  0  0  0  0  0  0  0  0  0
   44.4090    5.7110   17.1560 N   0  0  0  0  0  0  0  0  0  0  0  0
   44.1390    0.5580   12.3090 C   0  0  0  0  0  0  0  0  0  0  0  0
   42.4360    0.8780   10.5850 C   0  0  0  0  0  0  0  0  0  0  0  0
   42.1970    1.6080   11.6970 C   0  0  0  0  0  0  0  0  0  0  0  0
   43.4630    5.5820   14.9090 C   0  0  0  0  0  0  0  0  0  0  0  0
   43.9300    6.2910   16.0500 C   0  0  0  0  0  0  0  0  0  0  0  0
   43.2990    7.7880   14.5470 C   0  0  0  0  0  0  0  0  0  0  0  0
   43.0760    6.5780   13.9310 C   0  0  0  0  0  0  0  0  0  0  0  0
   42.5190    6.4310   12.5610 C   0  0  0  0  0  0  0  0  0  0  0  0
   41.8800    7.5030   11.9540 C   0  0  0  0  0  0  0  0  0  0  0  0
   41.3980    7.3750   10.6570 C   0  0  0  0  0  0  0  0  0  0  0  0
   42.1700    5.2240   10.5140 C   0  0  0  0  0  0  0  0  0  0  0  0
   42.6810    5.2810   11.7990 C   0  0  0  0  0  0  0  0  0  0  0  0
   45.7023    4.3055   18.8503 H   0  0  0  0  0  0  0  0  0  0  0  0
   44.1305    3.5322   19.0706 H   0  0  0  0  0  0  0  0  0  0  0  0
   45.3973    2.7371   18.1385 H   0  0  0  0  0  0  0  0  0  0  0  0
   44.0430    8.3937   16.4300 H   0  0  0  0  0  0  0  0  0  0  0  0
   40.6613    9.2547   10.5816 H   0  0  0  0  0  0  0  0  0  0  0  0
   40.4285    8.3069    9.1259 H   0  0  0  0  0  0  0  0  0  0  0  0
   42.3227    1.7217   14.6610 H   0  0  0  0  0  0  0  0  0  0  0  0
   44.0770    1.6556   14.6386 H   0  0  0  0  0  0  0  0  0  0  0  0
   45.0107    0.2334   12.8564 H   0  0  0  0  0  0  0  0  0  0  0  0
   41.8425    0.8247    9.6848 H   0  0  0  0  0  0  0  0  0  0  0  0
   41.3338    2.2482   11.8079 H   0  0  0  0  0  0  0  0  0  0  0  0
   43.1587    8.7883   14.1726 H   0  0  0  0  0  0  0  0  0  0  0  0
   41.7289    8.4315   12.4847 H   0  0  0  0  0  0  0  0  0  0  0  0
   42.3178    4.3458    9.9019 H   0  0  0  0  0  0  0  0  0  0  0  0
   43.2990    4.4650   12.0914 H   0  0  0  0  0  0  0  0  0  0  0  0
  1  5  1  0
  1 25  1  0
  1 26  1  0
  1 27  1  0
  2  5  2  0
  2  7  1  0
  3  7  1  0
  3  9  1  0
  4 13  1  0
  4 14  1  0
  5 12  1  0
  6 17  1  0
  6 18  1  0
  6 28  1  0
  7 16  2  0
  8 22  1  0
  8 29  1  0
  8 30  1  0
  9 11  1  0
  9 31  1  0
  9 32  1  0
 10 22  2  0
 10 23  1  0
 11 13  2  0
 11 15  1  0
 12 17  2  0
 13 33  1  0
 14 15  2  0
 14 34  1  0
 15 35  1  0
 16 17  1  0
 16 19  1  0
 18 19  2  0
 18 36  1  0
 19 20  1  0
 20 21  2  0
 20 24  1  0
 21 22  1  0
 21 37  1  0
 23 24  2  0
 23 38  1  0
 24 39  1  0
M  END
$$$$
