73B_ref
     RDKit          3D

 53 56  0  0  1  0  0  0  0  0999 V2000
  -15.8150   -5.1380   52.6460 C   0  0  0  0  0  0  0  0  0  0  0  0
  -16.3370   -6.3170   53.4440 C   0  0  1  0  0  0  0  0  0  0  0  0
  -16.5210   -5.9630   54.9350 C   0  0  0  0  0  0  0  0  0  0  0  0
  -17.9610   -5.9480   55.4580 C   0  0  1  0  0  0  0  0  0  0  0  0
  -18.1560   -5.1150   56.6360 N   0  0  0  0  0  0  0  0  0  0  0  0
  -18.9260   -5.6160   57.6990 C   0  0  0  0  0  0  0  0  0  0  0  0
  -19.7050   -6.7710   57.5420 C   0  0  0  0  0  0  0  0  0  0  0  0
  -20.4290   -7.2820   58.6130 C   0  0  0  0  0  0  0  0  0  0  0  0
  -20.3860   -6.6600   59.8360 C   0  0  0  0  0  0  0  0  0  0  0  0
  -21.3030   -7.3300   61.1700 Cl  0  0  0  0  0  0  0  0  0  0  0  0
  -19.6220   -5.5250   60.0100 C   0  0  0  0  0  0  0  0  0  0  0  0
  -18.8890   -5.0000   58.9520 C   0  0  0  0  0  0  0  0  0  0  0  0
  -18.9020   -5.5370   54.3710 C   0  0  0  0  0  0  0  0  0  0  0  0
  -19.9850   -4.7000   54.6540 C   0  0  0  0  0  0  0  0  0  0  0  0
  -20.8820   -4.3180   53.6520 C   0  0  0  0  0  0  0  0  0  0  0  0
  -20.6750   -4.8140   52.3560 C   0  0  0  0  0  0  0  0  0  0  0  0
  -19.6030   -5.6400   52.0590 C   0  0  0  0  0  0  0  0  0  0  0  0
  -18.7330   -6.0000   53.0720 C   0  0  0  0  0  0  0  0  0  0  0  0
  -17.5990   -6.8380   52.8680 N   0  0  0  0  0  0  0  0  0  0  0  0
  -17.6050   -8.0190   52.2200 C   0  0  0  0  0  0  0  0  0  0  0  0
  -18.9320   -8.6890   51.9620 C   0  0  0  0  0  0  0  0  0  0  0  0
  -16.5570   -8.5300   51.8470 O   0  0  0  0  0  0  0  0  0  0  0  0
  -22.0340   -3.4020   53.9540 C   0  0  0  0  0  0  0  0  0  0  0  0
  -23.1550   -3.3470   53.1150 C   0  0  0  0  0  0  0  0  0  0  0  0
  -24.2570   -2.5550   53.4270 C   0  0  0  0  0  0  0  0  0  0  0  0
  -24.2700   -1.7800   54.5830 C   0  0  0  0  0  0  0  0  0  0  0  0
  -23.1570   -1.8100   55.4130 C   0  0  0  0  0  0  0  0  0  0  0  0
  -22.0550   -2.6030   55.1010 C   0  0  0  0  0  0  0  0  0  0  0  0
  -25.4510   -0.9320   54.9220 C   0  0  0  0  0  0  0  0  0  0  0  0
  -25.7350   -0.7130   56.1820 O   0  0  0  0  0  0  0  0  0  0  0  0
  -26.1180   -0.4640   54.0100 O   0  0  0  0  0  0  0  0  0  0  0  0
  -15.6722   -5.3923   51.5951 H   0  0  0  0  0  0  0  0  0  0  0  0
  -16.4667   -4.2660   52.7147 H   0  0  0  0  0  0  0  0  0  0  0  0
  -14.8414   -4.8734   53.0451 H   0  0  0  0  0  0  0  0  0  0  0  0
  -15.5591   -7.0817   53.4120 H   0  0  0  0  0  0  0  0  0  0  0  0
  -16.1361   -4.9529   55.0923 H   0  0  0  0  0  0  0  0  0  0  0  0
  -15.8374   -6.5580   55.5365 H   0  0  0  0  0  0  0  0  0  0  0  0
  -18.3136   -6.9548   55.5498 H   0  0  0  0  0  0  0  0  0  0  0  0
  -17.4935   -4.3735   56.8111 H   0  0  0  0  0  0  0  0  0  0  0  0
  -19.8596   -7.2851   56.6104 H   0  0  0  0  0  0  0  0  0  0  0  0
  -21.0373   -8.1642   58.4748 H   0  0  0  0  0  0  0  0  0  0  0  0
  -19.5891   -5.0401   60.9747 H   0  0  0  0  0  0  0  0  0  0  0  0
  -18.2923   -4.1130   59.1078 H   0  0  0  0  0  0  0  0  0  0  0  0
  -20.1795   -4.3546   55.6540 H   0  0  0  0  0  0  0  0  0  0  0  0
  -21.3468   -4.5757   51.5464 H   0  0  0  0  0  0  0  0  0  0  0  0
  -19.5379   -6.1425   51.1303 H   0  0  0  0  0  0  0  0  0  0  0  0
  -18.8061   -9.7474   52.1616 H   0  0  0  0  0  0  0  0  0  0  0  0
  -19.7372   -8.3427   52.6084 H   0  0  0  0  0  0  0  0  0  0  0  0
  -19.2324   -8.5679   50.9211 H   0  0  0  0  0  0  0  0  0  0  0  0
  -23.2214   -3.9517   52.2240 H   0  0  0  0  0  0  0  0  0  0  0  0
  -25.1045   -2.5669   52.7559 H   0  0  0  0  0  0  0  0  0  0  0  0
  -23.1217   -1.2144   56.3146 H   0  0  0  0  0  0  0  0  0  0  0  0
  -21.2208   -2.5734   55.7838 H   0  0  0  0  0  0  0  0  0  0  0  0
  1  2  1  0
  1 32  1  0
  1 33  1  0
  1 34  1  0
  2  3  1  0
  2 19  1  0
  2 35  1  1
  3  4  1  0
  3 36  1  0
  3 37  1  0
  4  5  1  0
  4 13  1  0
  4 38  1  1
  5  6  1  0
  5 39  1  0
  6  7  2  0
  6 12  1  0
  7  8  1  0
  7 40  1  0
  8  9  2  0
  8 41  1  0
  9 10  1  0
  9 11  1  0
 11 12  2  0
 11 42  1  0
 12 43  1  0
 13 14  1  0
 13 18  2  0
 14 15  2  0
 14 44  1  0
 15 16  1  0
 15 23  1  0
 16 17  2  0
 16 45  1  0
 17 18  1  0
 17 46  1  0
 18 19  1  0
 19 20  1  0
 20 21  1  0
 20 22  2  0
 21 47  1  0
 21 48  1  0
 21 49  1  0
 23 24  2  0
 23 28  1  0
 24 25  1  0
 24 50  1  0
 25 26  2  0
 25 51  1  0
 26 27  1  0
 26 29  1  0
 27 28  2  0
 27 52  1  0
 28 53  1  0
 29 30  2  0
 29 31  1  0
M  CHG  1  31  -1
M  END
$$$$
