E9T_ref
     RDKit          3D

 55 60  0  0  1  0  0  0  0  0999 V2000
   13.2580   -8.0040   -7.6500 C   0  0  0  0  0  0  0  0  0  0  0  0
   13.6120   -7.1280   -8.7020 C   0  0  0  0  0  0  0  0  0  0  0  0
   14.9330   -7.1840   -9.2150 C   0  0  0  0  0  0  0  0  0  0  0  0
   15.2860   -6.3150  -10.2770 C   0  0  0  0  0  0  0  0  0  0  0  0
   14.3900   -5.4030  -10.7650 C   0  0  0  0  0  0  0  0  0  0  0  0
   13.1020   -5.2980  -10.2190 C   0  0  0  0  0  0  0  0  0  0  0  0
   12.7140   -6.1710   -9.2310 C   0  0  0  0  0  0  0  0  0  0  0  0
   12.1740   -4.1910  -10.6610 C   0  0  0  0  0  0  0  0  0  0  0  0
   14.6650  -15.3900   -4.1520 C   0  0  0  0  0  0  0  0  0  0  0  0
   14.1550   -8.8990   -7.1500 C   0  0  0  0  0  0  0  0  0  0  0  0
   15.4690   -8.9670   -7.6330 C   0  0  0  0  0  0  0  0  0  0  0  0
   15.8470   -8.0970   -8.6440 C   0  0  0  0  0  0  0  0  0  0  0  0
   12.5750   -3.4280  -11.5600 O   0  0  0  0  0  0  0  0  0  0  0  0
   11.0680   -4.0660  -10.0670 O   0  0  0  0  0  0  0  0  0  0  0  0
   19.1240  -12.5910   -5.3500 O   0  0  0  0  0  0  0  0  0  0  0  0
   16.1990  -15.4070   -4.0540 C   0  0  1  0  0  0  0  0  0  0  0  0
   16.7820  -14.3590   -5.0220 C   0  0  0  0  0  0  0  0  0  0  0  0
   16.2740  -12.9390   -4.6700 C   0  0  1  0  0  0  0  0  0  0  0  0
   14.7280  -12.9500   -4.7390 C   0  0  0  0  0  0  0  0  0  0  0  0
   14.1420  -14.0000   -3.7720 C   0  0  2  0  0  0  0  0  0  0  0  0
   16.6310  -15.0630   -2.6190 C   0  0  0  0  0  0  0  0  0  0  0  0
   16.1020  -13.6710   -2.2410 C   0  0  1  0  0  0  0  0  0  0  0  0
   16.6800  -12.6180   -3.2130 C   0  0  0  0  0  0  0  0  0  0  0  0
   14.5690  -13.6620   -2.3370 C   0  0  0  0  0  0  0  0  0  0  0  0
   16.8360  -11.8890   -5.6400 C   0  0  0  0  0  0  0  0  0  0  0  0
   18.2120  -11.7590   -5.9110 C   0  0  0  0  0  0  0  0  0  0  0  0
   18.6840  -10.7400   -6.7420 C   0  0  0  0  0  0  0  0  0  0  0  0
   17.8030   -9.8390   -7.3040 C   0  0  0  0  0  0  0  0  0  0  0  0
   16.4340   -9.9380   -7.0670 C   0  0  0  0  0  0  0  0  0  0  0  0
   15.9830  -10.9650   -6.2430 C   0  0  0  0  0  0  0  0  0  0  0  0
   12.2626   -7.9508   -7.2323 H   0  0  0  0  0  0  0  0  0  0  0  0
   16.2741   -6.3603  -10.7036 H   0  0  0  0  0  0  0  0  0  0  0  0
   14.7337   -4.7448  -11.5485 H   0  0  0  0  0  0  0  0  0  0  0  0
   11.7183   -6.1481   -8.8100 H   0  0  0  0  0  0  0  0  0  0  0  0
   14.2344  -16.1514   -3.4990 H   0  0  0  0  0  0  0  0  0  0  0  0
   14.3477  -15.6518   -5.1628 H   0  0  0  0  0  0  0  0  0  0  0  0
   13.7882   -9.4936   -6.3317 H   0  0  0  0  0  0  0  0  0  0  0  0
   16.8431   -8.0954   -9.0478 H   0  0  0  0  0  0  0  0  0  0  0  0
   20.0096  -12.5190   -5.7309 H   0  0  0  0  0  0  0  0  0  0  0  0
   16.5765  -16.3895   -4.3339 H   0  0  0  0  0  0  0  0  0  0  0  0
   16.5105  -14.6125   -6.0485 H   0  0  0  0  0  0  0  0  0  0  0  0
   17.8584  -14.4826   -4.9679 H   0  0  0  0  0  0  0  0  0  0  0  0
   14.3726  -13.1620   -5.7501 H   0  0  0  0  0  0  0  0  0  0  0  0
   14.2992  -11.9951   -4.4321 H   0  0  0  0  0  0  0  0  0  0  0  0
   13.0527  -13.9911   -3.8393 H   0  0  0  0  0  0  0  0  0  0  0  0
   17.7178  -15.0901   -2.5289 H   0  0  0  0  0  0  0  0  0  0  0  0
   16.2569  -15.8107   -1.9192 H   0  0  0  0  0  0  0  0  0  0  0  0
   16.4042  -13.4296   -1.2205 H   0  0  0  0  0  0  0  0  0  0  0  0
   16.3340  -11.6217   -2.9305 H   0  0  0  0  0  0  0  0  0  0  0  0
   17.7652  -12.5882   -3.1050 H   0  0  0  0  0  0  0  0  0  0  0  0
   14.1529  -14.4126   -1.6702 H   0  0  0  0  0  0  0  0  0  0  0  0
   14.1678  -12.7176   -1.9945 H   0  0  0  0  0  0  0  0  0  0  0  0
   19.7346  -10.6880   -6.9300 H   0  0  0  0  0  0  0  0  0  0  0  0
   18.2298   -9.0592   -7.9138 H   0  0  0  0  0  0  0  0  0  0  0  0
   14.9273  -11.0549   -6.1218 H   0  0  0  0  0  0  0  0  0  0  0  0
  1  2  2  0
  1 10  1  0
  1 31  1  0
  2  3  1  0
  2  7  1  0
  3  4  1  0
  3 12  2  0
  4  5  2  0
  4 32  1  0
  5  6  1  0
  5 33  1  0
  6  7  2  0
  6  8  1  0
  7 34  1  0
  8 13  2  0
  8 14  1  0
  9 16  1  0
  9 20  1  0
  9 35  1  0
  9 36  1  0
 10 11  2  0
 10 37  1  0
 11 12  1  0
 11 29  1  0
 12 38  1  0
 15 26  1  0
 15 39  1  0
 16 17  1  0
 16 21  1  0
 16 40  1  6
 17 18  1  0
 17 41  1  0
 17 42  1  0
 18 19  1  0
 18 23  1  0
 18 25  1  6
 19 20  1  0
 19 43  1  0
 19 44  1  0
 20 24  1  0
 20 45  1  1
 21 22  1  0
 21 46  1  0
 21 47  1  0
 22 23  1  0
 22 24  1  0
 22 48  1  1
 23 49  1  0
 23 50  1  0
 24 51  1  0
 24 52  1  0
 25 26  2  0
 25 30  1  0
 26 27  1  0
 27 28  2  0
 27 53  1  0
 28 29  1  0
 28 54  1  0
 29 30  2  0
 30 55  1  0
M  CHG  1  14  -1
M  END
$$$$
