1XB_ref
     RDKit          3D

 45 48  0  0  1  0  0  0  0  0999 V2000
    9.5250  -17.6520   -3.3800 C   0  0  0  0  0  0  0  0  0  0  0  0
    8.3280  -16.3450   -4.9960 C   0  0  0  0  0  0  0  0  0  0  0  0
   10.2960  -18.2360   -4.3660 C   0  0  0  0  0  0  0  0  0  0  0  0
    9.0930  -16.9340   -5.9860 C   0  0  0  0  0  0  0  0  0  0  0  0
    6.5270  -17.1060   -0.1050 C   0  0  0  0  0  0  0  0  0  0  0  0
    8.5580  -16.7090   -3.6860 C   0  0  0  0  0  0  0  0  0  0  0  0
    8.4090  -16.0890   -1.2840 C   0  0  0  0  0  0  0  0  0  0  0  0
    9.7120  -15.5610   -1.0050 C   0  0  0  0  0  0  0  0  0  0  0  0
   10.0680  -17.8650   -5.6750 C   0  0  0  0  0  0  0  0  0  0  0  0
    7.8240  -16.6100   -0.1410 C   0  0  0  0  0  0  0  0  0  0  0  0
    5.5590  -16.4640   -0.8330 C   0  0  0  0  0  0  0  0  0  0  0  0
    5.8740  -18.1580    0.5850 C   0  0  0  0  0  0  0  0  0  0  0  0
   10.0470  -15.6840    0.3330 C   0  0  0  0  0  0  0  0  0  0  0  0
    7.7560  -16.1300   -2.5910 C   0  0  0  0  0  0  0  0  0  0  0  0
    4.6650  -13.6460   -3.2210 C   0  0  0  0  0  0  0  0  0  0  0  0
    5.7140  -15.3000   -1.7370 C   0  0  2  0  0  0  0  0  0  0  0  0
   10.5960  -14.9160   -1.9970 C   0  0  0  0  0  0  0  0  0  0  0  0
    6.4210  -19.1570    1.5200 C   0  0  0  0  0  0  0  0  0  0  0  0
   11.2810  -15.2640    1.0280 C   0  0  0  0  0  0  0  0  0  0  0  0
    4.4060  -14.7970   -2.2980 C   0  0  0  0  0  0  0  0  0  0  0  0
    4.5700  -18.1530    0.2720 N   0  0  0  0  0  0  0  0  0  0  0  0
    6.5190  -15.8020   -2.8510 N   0  0  0  0  0  0  0  0  0  0  0  0
    3.6550  -13.4940   -4.1350 N   0  0  0  0  0  0  0  0  0  0  0  0
    5.6510  -12.9230   -3.1600 O   0  0  0  0  0  0  0  0  0  0  0  0
    4.3680  -17.0980   -0.6250 O   0  0  0  0  0  0  0  0  0  0  0  0
    8.8110  -16.4520    1.2480 S   0  0  0  0  0  0  0  0  0  0  0  0
   11.0250  -18.5910   -6.9230 Cl  0  0  0  0  0  0  0  0  0  0  0  0
    9.7102  -17.9745   -2.3679 H   0  0  0  0  0  0  0  0  0  0  0  0
    7.6030  -15.5927   -5.2655 H   0  0  0  0  0  0  0  0  0  0  0  0
   11.0478  -18.9694   -4.1154 H   0  0  0  0  0  0  0  0  0  0  0  0
    8.9284  -16.6579   -7.0175 H   0  0  0  0  0  0  0  0  0  0  0  0
    6.2242  -14.4905   -1.2037 H   0  0  0  0  0  0  0  0  0  0  0  0
   11.2979  -14.2083   -1.5577 H   0  0  0  0  0  0  0  0  0  0  0  0
   11.1701  -15.6369   -2.5727 H   0  0  0  0  0  0  0  0  0  0  0  0
   10.0249  -14.3283   -2.7162 H   0  0  0  0  0  0  0  0  0  0  0  0
    6.1365  -20.1687    1.2319 H   0  0  0  0  0  0  0  0  0  0  0  0
    7.5090  -19.1407    1.5540 H   0  0  0  0  0  0  0  0  0  0  0  0
    6.0625  -19.0040    2.5376 H   0  0  0  0  0  0  0  0  0  0  0  0
   11.1521  -15.2056    2.1065 H   0  0  0  0  0  0  0  0  0  0  0  0
   12.0888  -15.9757    0.8672 H   0  0  0  0  0  0  0  0  0  0  0  0
   11.6383  -14.2866    0.7061 H   0  0  0  0  0  0  0  0  0  0  0  0
    3.8945  -15.5996   -2.8218 H   0  0  0  0  0  0  0  0  0  0  0  0
    3.7454  -14.4678   -1.4966 H   0  0  0  0  0  0  0  0  0  0  0  0
    3.7022  -12.7426   -4.8072 H   0  0  0  0  0  0  0  0  0  0  0  0
    2.8797  -14.1456   -4.1818 H   0  0  0  0  0  0  0  0  0  0  0  0
  1  3  2  0
  1  6  1  0
  1 28  1  0
  2  4  1  0
  2  6  2  0
  2 29  1  0
  3  9  1  0
  3 30  1  0
  4  9  2  0
  4 31  1  0
  5 10  1  0
  5 11  2  0
  5 12  1  0
  6 14  1  0
  7  8  1  0
  7 10  2  0
  7 14  1  0
  8 13  2  0
  8 17  1  0
  9 27  1  0
 10 26  1  0
 11 16  1  0
 11 25  1  0
 12 18  1  0
 12 21  2  0
 13 19  1  0
 13 26  1  0
 14 22  2  0
 15 20  1  0
 15 23  1  0
 15 24  2  0
 16 20  1  0
 16 22  1  0
 16 32  1  1
 17 33  1  0
 17 34  1  0
 17 35  1  0
 18 36  1  0
 18 37  1  0
 18 38  1  0
 19 39  1  0
 19 40  1  0
 19 41  1  0
 20 42  1  0
 20 43  1  0
 21 25  1  0
 23 44  1  0
 23 45  1  0
M  END
$$$$
