O23_ref
     RDKit          3D

 47 51  0  0  1  0  0  0  0  0999 V2000
    5.3130  -34.4040  -16.5480 O   0  0  0  0  0  0  0  0  0  0  0  0
    4.2520  -33.7880  -16.4980 C   0  0  0  0  0  0  0  0  0  0  0  0
    3.7900  -33.1340  -17.5710 N   0  0  0  0  0  0  0  0  0  0  0  0
    4.6200  -33.0470  -18.7650 C   0  0  0  0  0  0  0  0  0  0  0  0
    4.2780  -31.8320  -19.6250 C   0  0  0  0  0  0  0  0  0  0  0  0
    5.4780  -31.7930  -18.6800 C   0  0  0  0  0  0  0  0  0  0  0  0
    3.4760  -33.7770  -15.2050 C   0  0  0  0  0  0  0  0  0  0  0  0
    2.6790  -32.6800  -14.8730 C   0  0  0  0  0  0  0  0  0  0  0  0
    1.9620  -32.6740  -13.6690 C   0  0  0  0  0  0  0  0  0  0  0  0
    2.0290  -33.7580  -12.7920 C   0  0  0  0  0  0  0  0  0  0  0  0
    2.8440  -34.8430  -13.1220 C   0  0  0  0  0  0  0  0  0  0  0  0
    3.5570  -34.8610  -14.3270 C   0  0  0  0  0  0  0  0  0  0  0  0
    1.2430  -33.6920  -11.5120 C   0  0  0  0  0  0  0  0  0  0  0  0
    0.7050  -34.8130  -10.9790 N   0  0  0  0  0  0  0  0  0  0  0  0
    0.6900  -36.1280  -11.3170 C   0  0  0  0  0  0  0  0  0  0  0  0
    0.0260  -37.0870  -10.5240 C   0  0  0  0  0  0  0  0  0  0  0  0
   -0.6260  -36.7360   -9.3880 N   0  0  0  0  0  0  0  0  0  0  0  0
   -0.6370  -35.4360   -9.0070 C   0  0  0  0  0  0  0  0  0  0  0  0
    0.0640  -34.4210   -9.8560 C   0  0  0  0  0  0  0  0  0  0  0  0
    0.1850  -33.0790   -9.7040 N   0  0  0  0  0  0  0  0  0  0  0  0
    0.9230  -32.5930  -10.7310 C   0  0  0  0  0  0  0  0  0  0  0  0
   -1.2740  -35.0140   -7.8940 N   0  0  0  0  0  0  0  0  0  0  0  0
   -1.9050  -35.9340   -6.9690 C   0  0  0  0  0  0  0  0  0  0  0  0
   -0.9140  -36.4260   -5.9370 C   0  0  0  0  0  0  0  0  0  0  0  0
   -0.2750  -35.2420   -4.8350 S   0  0  0  0  0  0  0  0  0  0  0  0
    0.7150  -36.3820   -3.9760 C   0  0  0  0  0  0  0  0  0  0  0  0
    0.5190  -37.6310   -4.5770 C   0  0  0  0  0  0  0  0  0  0  0  0
   -0.3720  -37.6760   -5.6570 C   0  0  0  0  0  0  0  0  0  0  0  0
    2.8043  -32.9107  -17.6593 H   0  0  0  0  0  0  0  0  0  0  0  0
    4.9902  -33.9703  -19.2138 H   0  0  0  0  0  0  0  0  0  0  0  0
    3.4029  -31.2270  -19.3849 H   0  0  0  0  0  0  0  0  0  0  0  0
    4.4282  -31.9176  -20.6999 H   0  0  0  0  0  0  0  0  0  0  0  0
    6.4794  -31.7739  -19.0897 H   0  0  0  0  0  0  0  0  0  0  0  0
    5.4183  -31.1593  -17.7940 H   0  0  0  0  0  0  0  0  0  0  0  0
    2.5953  -31.8282  -15.5331 H   0  0  0  0  0  0  0  0  0  0  0  0
    1.3460  -31.8182  -13.4329 H   0  0  0  0  0  0  0  0  0  0  0  0
    3.0058  -35.6606  -12.4379 H   0  0  0  0  0  0  0  0  0  0  0  0
    4.1847  -35.7114  -14.5514 H   0  0  0  0  0  0  0  0  0  0  0  0
    1.1253  -36.4301  -12.2529 H   0  0  0  0  0  0  0  0  0  0  0  0
   -0.0120  -38.1289  -10.8093 H   0  0  0  0  0  0  0  0  0  0  0  0
    1.2334  -31.5836  -10.8800 H   0  0  0  0  0  0  0  0  0  0  0  0
   -1.0459  -34.0922   -7.5478 H   0  0  0  0  0  0  0  0  0  0  0  0
   -2.4134  -36.7414   -7.4967 H   0  0  0  0  0  0  0  0  0  0  0  0
   -2.6763  -35.3656   -6.4644 H   0  0  0  0  0  0  0  0  0  0  0  0
    1.3442  -36.1029   -3.1456 H   0  0  0  0  0  0  0  0  0  0  0  0
    1.0311  -38.5155   -4.2278 H   0  0  0  0  0  0  0  0  0  0  0  0
   -0.6103  -38.5731   -6.2092 H   0  0  0  0  0  0  0  0  0  0  0  0
  1  2  2  0
  2  3  1  0
  2  7  1  0
  3  4  1  0
  3 29  1  0
  4  5  1  0
  4  6  1  0
  4 30  1  0
  5  6  1  0
  5 31  1  0
  5 32  1  0
  6 33  1  0
  6 34  1  0
  7  8  2  0
  7 12  1  0
  8  9  1  0
  8 35  1  0
  9 10  2  0
  9 36  1  0
 10 11  1  0
 10 13  1  0
 11 12  2  0
 11 37  1  0
 12 38  1  0
 13 14  1  0
 13 21  2  0
 14 15  1  0
 14 19  1  0
 15 16  2  0
 15 39  1  0
 16 17  1  0
 16 40  1  0
 17 18  2  0
 18 19  1  0
 18 22  1  0
 19 20  2  0
 20 21  1  0
 21 41  1  0
 22 23  1  0
 22 42  1  0
 23 24  1  0
 23 43  1  0
 23 44  1  0
 24 25  1  0
 24 28  2  0
 25 26  1  0
 26 27  2  0
 26 45  1  0
 27 28  1  0
 27 46  1  0
 28 47  1  0
M  END
$$$$
