Q4J_ref
     RDKit          3D

 71 75  0  0  1  0  0  0  0  0999 V2000
   24.6680   15.2080  -26.5610 C   0  0  0  0  0  0  0  0  0  0  0  0
   18.6900    9.3510  -20.5160 C   0  0  0  0  0  0  0  0  0  0  0  0
   25.9650   14.8350  -26.4810 C   0  0  0  0  0  0  0  0  0  0  0  0
   21.3110    9.2420  -18.7840 C   0  0  0  0  0  0  0  0  0  0  0  0
   22.5420    9.2230  -18.1190 C   0  0  0  0  0  0  0  0  0  0  0  0
   23.3720   10.3570  -18.1480 C   0  0  0  0  0  0  0  0  0  0  0  0
   26.5580   13.8210  -25.5390 C   0  0  0  0  0  0  0  0  0  0  0  0
   26.6470   15.5180  -27.4130 N   0  0  0  0  0  0  0  0  0  0  0  0
   25.7490   16.3480  -28.0790 N   0  0  0  0  0  0  0  0  0  0  0  0
   24.5460   16.1830  -27.5810 C   0  0  0  0  0  0  0  0  0  0  0  0
   23.4390   16.9120  -28.0940 N   0  0  0  0  0  0  0  0  0  0  0  0
   22.1060   16.8540  -27.6770 C   0  0  0  0  0  0  0  0  0  0  0  0
   21.6950   16.0470  -26.6950 N   0  0  0  0  0  0  0  0  0  0  0  0
   21.1250   17.6650  -28.3030 C   0  0  0  0  0  0  0  0  0  0  0  0
   19.7980   17.5810  -27.8600 C   0  0  0  0  0  0  0  0  0  0  0  0
   18.7190   18.4170  -28.5020 C   0  0  0  0  0  0  0  0  0  0  0  0
   19.4890   16.7350  -26.8660 N   0  0  0  0  0  0  0  0  0  0  0  0
   20.4280   15.9780  -26.3020 C   0  0  0  0  0  0  0  0  0  0  0  0
   20.0350   15.0580  -25.1760 C   0  0  2  0  0  0  0  0  0  0  0  0
   21.2460   14.4850  -24.4080 C   0  0  0  0  0  0  0  0  0  0  0  0
   20.7530   13.6710  -23.2070 C   0  0  0  0  0  0  0  0  0  0  0  0
   19.2280   13.8750  -25.7190 C   0  0  0  0  0  0  0  0  0  0  0  0
   18.6650   13.0900  -24.5250 C   0  0  0  0  0  0  0  0  0  0  0  0
   19.7950   12.5400  -23.6070 C   0  0  1  0  0  0  0  0  0  0  0  0
   20.6260   11.5960  -24.3020 O   0  0  0  0  0  0  0  0  0  0  0  0
   20.1070   10.3430  -24.7780 C   0  0  0  0  0  0  0  0  0  0  0  0
   19.2690   12.0310  -22.2750 C   0  0  0  0  0  0  0  0  0  0  0  0
   18.2380   12.4740  -21.8060 O   0  0  0  0  0  0  0  0  0  0  0  0
   19.9920   11.1030  -21.6000 N   0  0  0  0  0  0  0  0  0  0  0  0
   19.6030   10.5670  -20.2750 C   0  0  2  0  0  0  0  0  0  0  0  0
   20.9100   10.4000  -19.4850 C   0  0  0  0  0  0  0  0  0  0  0  0
   21.8040   11.4860  -19.4620 C   0  0  0  0  0  0  0  0  0  0  0  0
   22.9680   11.4320  -18.8260 N   0  0  0  0  0  0  0  0  0  0  0  0
   24.6220   10.3660  -17.4980 N   0  0  0  0  0  0  0  0  0  0  0  0
   25.0980    9.3940  -16.6030 N   0  0  0  0  0  0  0  0  0  0  0  0
   26.2960    9.7330  -16.2200 C   0  0  0  0  0  0  0  0  0  0  0  0
   26.6440   10.9270  -16.8490 C   0  0  0  0  0  0  0  0  0  0  0  0
   27.8110   11.5820  -16.6890 F   0  0  0  0  0  0  0  0  0  0  0  0
   25.6080   11.3030  -17.6320 C   0  0  0  0  0  0  0  0  0  0  0  0
   23.8701   14.8245  -25.9449 H   0  0  0  0  0  0  0  0  0  0  0  0
   18.3495    8.9348  -19.5683 H   0  0  0  0  0  0  0  0  0  0  0  0
   17.8005    9.6205  -21.0867 H   0  0  0  0  0  0  0  0  0  0  0  0
   19.2091    8.5602  -21.0589 H   0  0  0  0  0  0  0  0  0  0  0  0
   20.6742    8.3694  -18.7549 H   0  0  0  0  0  0  0  0  0  0  0  0
   22.8389    8.3312  -17.5860 H   0  0  0  0  0  0  0  0  0  0  0  0
   27.2259   13.1301  -26.0546 H   0  0  0  0  0  0  0  0  0  0  0  0
   27.1409   14.3017  -24.7530 H   0  0  0  0  0  0  0  0  0  0  0  0
   25.7939   13.2179  -25.0474 H   0  0  0  0  0  0  0  0  0  0  0  0
   27.6383   15.4777  -27.6167 H   0  0  0  0  0  0  0  0  0  0  0  0
   23.5657   17.5002  -28.9061 H   0  0  0  0  0  0  0  0  0  0  0  0
   21.3921   18.3366  -29.1056 H   0  0  0  0  0  0  0  0  0  0  0  0
   17.9183   18.6355  -27.7944 H   0  0  0  0  0  0  0  0  0  0  0  0
   19.1179   19.3668  -28.8595 H   0  0  0  0  0  0  0  0  0  0  0  0
   18.2897   17.8856  -29.3518 H   0  0  0  0  0  0  0  0  0  0  0  0
   19.4204   15.6662  -24.5103 H   0  0  0  0  0  0  0  0  0  0  0  0
   21.8781   15.2938  -24.0377 H   0  0  0  0  0  0  0  0  0  0  0  0
   21.8629   13.8517  -25.0485 H   0  0  0  0  0  0  0  0  0  0  0  0
   20.2456   14.4022  -22.5753 H   0  0  0  0  0  0  0  0  0  0  0  0
   21.5994   13.3020  -22.6234 H   0  0  0  0  0  0  0  0  0  0  0  0
   19.8355   13.2275  -26.3548 H   0  0  0  0  0  0  0  0  0  0  0  0
   18.3867   14.2246  -26.3198 H   0  0  0  0  0  0  0  0  0  0  0  0
   17.9816   12.3004  -24.8389 H   0  0  0  0  0  0  0  0  0  0  0  0
   18.0510   13.8054  -23.9722 H   0  0  0  0  0  0  0  0  0  0  0  0
   20.9022    9.7896  -25.2773 H   0  0  0  0  0  0  0  0  0  0  0  0
   19.7297    9.7210  -23.9665 H   0  0  0  0  0  0  0  0  0  0  0  0
   19.3045   10.4930  -25.4989 H   0  0  0  0  0  0  0  0  0  0  0  0
   20.8075   10.7000  -22.0389 H   0  0  0  0  0  0  0  0  0  0  0  0
   19.0267   11.3099  -19.7241 H   0  0  0  0  0  0  0  0  0  0  0  0
   21.5688   12.4201  -19.9512 H   0  0  0  0  0  0  0  0  0  0  0  0
   26.8734    9.1673  -15.5085 H   0  0  0  0  0  0  0  0  0  0  0  0
   25.4817   12.1602  -18.2768 H   0  0  0  0  0  0  0  0  0  0  0  0
  1  3  2  0
  1 10  1  0
  1 40  1  0
  2 30  1  0
  2 41  1  0
  2 42  1  0
  2 43  1  0
  3  7  1  0
  3  8  1  0
  4  5  2  0
  4 31  1  0
  4 44  1  0
  5  6  1  0
  5 45  1  0
  6 33  2  0
  6 34  1  0
  7 46  1  0
  7 47  1  0
  7 48  1  0
  8  9  1  0
  8 49  1  0
  9 10  2  0
 10 11  1  0
 11 12  1  0
 11 50  1  0
 12 13  2  0
 12 14  1  0
 13 18  1  0
 14 15  2  0
 14 51  1  0
 15 16  1  0
 15 17  1  0
 16 52  1  0
 16 53  1  0
 16 54  1  0
 17 18  2  0
 18 19  1  0
 19 20  1  0
 19 22  1  0
 19 55  1  1
 20 21  1  0
 20 56  1  0
 20 57  1  0
 21 24  1  0
 21 58  1  0
 21 59  1  0
 22 23  1  0
 22 60  1  0
 22 61  1  0
 23 24  1  0
 23 62  1  0
 23 63  1  0
 24 25  1  6
 24 27  1  0
 25 26  1  0
 26 64  1  0
 26 65  1  0
 26 66  1  0
 27 28  2  0
 27 29  1  0
 29 30  1  0
 29 67  1  0
 30 31  1  0
 30 68  1  1
 31 32  2  0
 32 33  1  0
 32 69  1  0
 34 35  1  0
 34 39  1  0
 35 36  2  0
 36 37  1  0
 36 70  1  0
 37 38  1  0
 37 39  2  0
 39 71  1  0
M  END
$$$$
