3CLPro_1
  PyMOL2.6          3D                             0

 39 41  0  0  0  0  0  0  0  0999 V2000
   -2.7639   -0.2254   12.1532 C   0  0
   -0.4533   -2.8244   19.2488 C   0  0
   -4.2700   -0.4445   12.0000 C   0  0
   -4.6428   -1.0907   10.6691 C   0  0
   -0.8411   -1.4111   17.4072 C   0  0
   -4.1034   -0.2781    9.5120 C   0  0
   -2.5955   -0.1776    9.6172 C   0  0
   -2.1868    0.4853   10.9303 C   0  0
   -2.0043   -1.0801   15.2025 C   0  0
    0.5389   -1.3439   17.2382 C   0  0
    0.9019   -2.7235   19.0351 C   0  0
   -3.1219    0.8574   15.7486 N   0  0
   -1.7130   -0.7018   16.5110 N   0  0
   -2.4660    0.5688   13.4223 C   0  0
    1.3912   -1.9827   18.0414 N   0  0
   -2.3882    0.5095   16.8099 C   0  0
   -1.3490   -2.1775   18.4376 C   0  0
   -3.0394   -0.1091   14.6593 C   0  0  1  0  0  0
   -0.9109   -3.5936   20.2752 F   0  0
   -2.3051    1.1146   17.8538 O   0  0
   -1.5442   -2.0327   14.6199 O   0  0
   -2.2854   -1.2044   12.2176 H   0  0
   -4.6714   -1.1202   12.7506 H   0  0
   -4.8024    0.5025   12.1022 H   0  0
   -5.7271   -1.1776   10.5884 H   0  0
   -4.2483   -2.1073   10.6257 H   0  0
   -4.3785   -0.7494    8.5675 H   0  0
   -4.5510    0.7170    9.5045 H   0  0
   -2.1493   -1.1710    9.5488 H   0  0
   -2.2019    0.3944    8.7760 H   0  0
   -1.0984    0.5178   10.9981 H   0  0
   -2.5208    1.5240   10.9153 H   0  0
    0.9740   -0.7581   16.4415 H   0  0
    1.6118   -3.2349   19.6684 H   0  0
   -2.9006    1.5644   13.3197 H   0  0
   -1.3891    0.7296   13.5151 H   0  0
   -2.4118   -2.2647   18.6075 H   0  0
   -4.0117   -0.5832   14.5809 H   0  0
   -3.7002    1.6821   15.7293 H   0  0
  1  3  1  0  0  0
  1  8  1  0  0  0
  1 14  1  0  0  0
  1 22  1  0  0  0
  2 17  2  0  0  0
  2 11  1  0  0  0
  2 19  1  0  0  0
  3  4  1  0  0  0
  3 23  1  0  0  0
  3 24  1  0  0  0
  4  6  1  0  0  0
  4 25  1  0  0  0
  4 26  1  0  0  0
  5 13  1  0  0  0
  5 10  2  0  0  0
  5 17  1  0  0  0
  6  7  1  0  0  0
  6 27  1  0  0  0
  6 28  1  0  0  0
  7  8  1  0  0  0
  7 29  1  0  0  0
  7 30  1  0  0  0
  8 31  1  0  0  0
  8 32  1  0  0  0
  9 21  2  0  0  0
  9 18  1  0  0  0
  9 13  1  0  0  0
 10 15  1  0  0  0
 10 33  1  0  0  0
 11 15  2  0  0  0
 11 34  1  0  0  0
 12 18  1  0  0  0
 12 16  1  0  0  0
 12 39  1  0  0  0
 13 16  1  0  0  0
 14 18  1  0  0  0
 14 35  1  0  0  0
 14 36  1  0  0  0
 16 20  2  0  0  0
 17 37  1  0  0  0
 18 38  1  0  0  0
M  END
$$$$